 xtb: 6.7.1 (edcfbbe)
          04062517243D

 26 27  0     0  0            999 V2000
   -3.8393    0.1766    1.5257 C   0  0  0  0  0  0  0  0  0  0  0  0
   -2.5909    0.1515    0.7955 N   0  0  0  0  0  0  0  0  0  0  0  0
   -2.4847   -0.3584   -0.4365 C   0  0  0  0  0  0  0  0  0  0  0  0
   -3.4038   -0.8593   -1.0607 O   0  0  0  0  0  0  0  0  0  0  0  0
   -1.2577   -0.3453   -1.0077 O   0  0  0  0  0  0  0  0  0  0  0  0
   -0.2053    0.4210   -0.5022 C   0  0  0  0  0  0  0  0  0  0  0  0
   -0.3143    1.7821   -0.3675 C   0  0  0  0  0  0  0  0  0  0  0  0
    0.7831    2.5335    0.0785 C   0  0  0  0  0  0  0  0  0  0  0  0
    1.9674    1.9214    0.3784 C   0  0  0  0  0  0  0  0  0  0  0  0
    2.1121    0.5248    0.2397 C   0  0  0  0  0  0  0  0  0  0  0  0
    1.0097   -0.2495   -0.2104 C   0  0  0  0  0  0  0  0  0  0  0  0
    1.1549   -1.6449   -0.3516 C   0  0  0  0  0  0  0  0  0  0  0  0
    2.3447   -2.2505   -0.0576 C   0  0  0  0  0  0  0  0  0  0  0  0
    3.4371   -1.4898    0.3884 C   0  0  0  0  0  0  0  0  0  0  0  0
    3.3241   -0.1353    0.5335 C   0  0  0  0  0  0  0  0  0  0  0  0
   -4.6094   -0.2483    0.8853 H   0  0  0  0  0  0  0  0  0  0  0  0
   -4.1003    1.2030    1.7802 H   0  0  0  0  0  0  0  0  0  0  0  0
   -3.7550   -0.4167    2.4352 H   0  0  0  0  0  0  0  0  0  0  0  0
   -1.7677    0.5044    1.2620 H   0  0  0  0  0  0  0  0  0  0  0  0
   -1.2436    2.2722   -0.6165 H   0  0  0  0  0  0  0  0  0  0  0  0
    0.6759    3.6020    0.1761 H   0  0  0  0  0  0  0  0  0  0  0  0
    2.8124    2.4982    0.7209 H   0  0  0  0  0  0  0  0  0  0  0  0
    0.3087   -2.2169   -0.7024 H   0  0  0  0  0  0  0  0  0  0  0  0
    2.4502   -3.3188   -0.1683 H   0  0  0  0  0  0  0  0  0  0  0  0
    4.3684   -1.9861    0.6142 H   0  0  0  0  0  0  0  0  0  0  0  0
    4.1625    0.4533    0.8738 H   0  0  0  0  0  0  0  0  0  0  0  0
  1  2  1  0  0  0  0
  2  3  4  0  0  0  0
  3  4  2  0  0  0  0
  3  5  1  0  0  0  0
  5  6  1  0  0  0  0
  6  7  4  0  0  0  0
  7  8  4  0  0  0  0
  8  9  2  0  0  0  0
  9 10  4  0  0  0  0
  6 11  4  0  0  0  0
 10 11  4  0  0  0  0
 11 12  4  0  0  0  0
 12 13  2  0  0  0  0
 13 14  4  0  0  0  0
 10 15  4  0  0  0  0
 14 15  2  0  0  0  0
  1 16  1  0  0  0  0
  1 17  1  0  0  0  0
  1 18  1  0  0  0  0
  2 19  1  0  0  0  0
  7 20  1  0  0  0  0
  8 21  1  0  0  0  0
  9 22  1  0  0  0  0
 12 23  1  0  0  0  0
 13 24  1  0  0  0  0
 14 25  1  0  0  0  0
 15 26  1  0  0  0  0
M  END
