 xtb: 6.7.1 (edcfbbe)
          04062518003D

 24 24  0     0  0            999 V2000
   -1.7202   -1.0389   -0.7207 C   0  0  0  0  0  0  0  0  0  0  0  0
   -1.0697   -0.5055    0.5633 C   0  0  0  0  0  0  0  0  0  0  0  0
   -1.7774   -0.6406    1.3896 H   0  0  0  0  0  0  0  0  0  0  0  0
   -0.7481    0.9930    0.4681 C   0  0  0  0  0  0  0  0  0  0  0  0
   -1.6318    1.4947    0.0595 H   0  0  0  0  0  0  0  0  0  0  0  0
    0.4766    1.2628   -0.4312 C   0  0  0  0  0  0  0  0  0  0  0  0
    0.7899    2.3018   -0.2316 H   0  0  0  0  0  0  0  0  0  0  0  0
    1.6494    0.3502   -0.0266 C   0  0  0  0  0  0  0  0  0  0  0  0
    2.3734    0.3435   -0.8516 H   0  0  0  0  0  0  0  0  0  0  0  0
    1.2318   -1.1155    0.1885 C   0  0  0  0  0  0  0  0  0  0  0  0
    2.0091   -1.5752    0.8202 H   0  0  0  0  0  0  0  0  0  0  0  0
    0.0653   -1.2704    0.9540 O   0  0  0  0  0  0  0  0  0  0  0  0
    1.1576   -1.7440   -1.0514 O   0  0  0  0  0  0  0  0  0  0  0  0
    2.2314    0.7788    1.1817 O   0  0  0  0  0  0  0  0  0  0  0  0
    0.2300    1.0869   -1.8017 O   0  0  0  0  0  0  0  0  0  0  0  0
   -0.5413    1.5564    1.7420 O   0  0  0  0  0  0  0  0  0  0  0  0
   -2.9480   -0.3652   -0.8981 O   0  0  0  0  0  0  0  0  0  0  0  0
   -1.8815   -2.1163   -0.5907 H   0  0  0  0  0  0  0  0  0  0  0  0
   -1.0499   -0.8717   -1.5705 H   0  0  0  0  0  0  0  0  0  0  0  0
    1.0627   -2.7009   -0.9302 H   0  0  0  0  0  0  0  0  0  0  0  0
    2.7400    1.5895    1.0333 H   0  0  0  0  0  0  0  0  0  0  0  0
   -0.4204    1.7407   -2.0971 H   0  0  0  0  0  0  0  0  0  0  0  0
    0.2297    1.1267    2.1477 H   0  0  0  0  0  0  0  0  0  0  0  0
   -3.3917   -0.7252   -1.6789 H   0  0  0  0  0  0  0  0  0  0  0  0
  1  2  1  0  0  0  0
  2  3  1  0  0  0  0
  2  4  1  0  0  0  0
  4  5  1  0  0  0  0
  4  6  1  0  0  0  0
  6  7  1  0  0  0  0
  6  8  1  0  0  0  0
  8  9  1  0  0  0  0
  8 10  1  0  0  0  0
 10 11  1  0  0  0  0
  2 12  1  0  0  0  0
 10 12  1  0  0  0  0
 10 13  1  0  0  0  0
  8 14  1  0  0  0  0
  6 15  1  0  0  0  0
  4 16  1  0  0  0  0
  1 17  1  0  0  0  0
  1 18  1  0  0  0  0
  1 19  1  0  0  0  0
 13 20  1  0  0  0  0
 14 21  1  0  0  0  0
 15 22  1  0  0  0  0
 16 23  1  0  0  0  0
 17 24  1  0  0  0  0
M  END
