 xtb: 6.7.1 (edcfbbe)
          04062518003D

 24 24  0     0  0            999 V2000
   -2.3317   -0.9073   -0.5012 C   0  0  0  0  0  0  0  0  0  0  0  0
   -1.0121   -0.5462    0.1991 C   0  0  0  0  0  0  0  0  0  0  0  0
   -1.0540   -0.8460    1.2599 H   0  0  0  0  0  0  0  0  0  0  0  0
   -0.7383    0.9736    0.1668 C   0  0  0  0  0  0  0  0  0  0  0  0
   -1.5100    1.4610   -0.4404 H   0  0  0  0  0  0  0  0  0  0  0  0
    0.6408    1.2471   -0.4803 C   0  0  0  0  0  0  0  0  0  0  0  0
    0.9079    2.2983   -0.3237 H   0  0  0  0  0  0  0  0  0  0  0  0
    1.7059    0.3740    0.2105 C   0  0  0  0  0  0  0  0  0  0  0  0
    2.6530    0.4533   -0.3343 H   0  0  0  0  0  0  0  0  0  0  0  0
    1.2757   -1.1156    0.1587 C   0  0  0  0  0  0  0  0  0  0  0  0
    1.2219   -1.4948    1.2008 H   0  0  0  0  0  0  0  0  0  0  0  0
    0.0063   -1.2814   -0.4504 O   0  0  0  0  0  0  0  0  0  0  0  0
    2.1948   -1.8180   -0.5906 O   0  0  0  0  0  0  0  0  0  0  0  0
    1.9593    0.8009    1.5214 O   0  0  0  0  0  0  0  0  0  0  0  0
    0.6103    1.0654   -1.8702 O   0  0  0  0  0  0  0  0  0  0  0  0
   -0.7730    1.4432    1.4999 O   0  0  0  0  0  0  0  0  0  0  0  0
   -3.4265   -0.1993    0.0120 O   0  0  0  0  0  0  0  0  0  0  0  0
   -2.4793   -1.9911   -0.4345 H   0  0  0  0  0  0  0  0  0  0  0  0
   -2.2559   -0.6321   -1.5553 H   0  0  0  0  0  0  0  0  0  0  0  0
    1.8973   -2.7341   -0.7106 H   0  0  0  0  0  0  0  0  0  0  0  0
    1.1067    0.9809    1.9610 H   0  0  0  0  0  0  0  0  0  0  0  0
    0.5034    0.1203   -2.0602 H   0  0  0  0  0  0  0  0  0  0  0  0
   -0.9721    2.3896    1.5144 H   0  0  0  0  0  0  0  0  0  0  0  0
   -3.6064   -0.4829    0.9197 H   0  0  0  0  0  0  0  0  0  0  0  0
  1  2  1  0  0  0  0
  2  3  1  0  0  0  0
  2  4  1  0  0  0  0
  4  5  1  0  0  0  0
  4  6  1  0  0  0  0
  6  7  1  0  0  0  0
  6  8  1  0  0  0  0
  8  9  1  0  0  0  0
  8 10  1  0  0  0  0
 10 11  1  0  0  0  0
  2 12  1  0  0  0  0
 10 12  1  0  0  0  0
 10 13  1  0  0  0  0
  8 14  1  0  0  0  0
  6 15  1  0  0  0  0
  4 16  1  0  0  0  0
  1 17  1  0  0  0  0
  1 18  1  0  0  0  0
  1 19  1  0  0  0  0
 13 20  1  0  0  0  0
 14 21  1  0  0  0  0
 15 22  1  0  0  0  0
 16 23  1  0  0  0  0
 17 24  1  0  0  0  0
M  END
