 xtb: 6.7.1 (edcfbbe)
          04062508313D

 24 24  0     0  0            999 V2000
   -3.5848    0.2844   -0.3295 C   0  0  0  0  0  0  0  0  0  0  0  0
   -2.1945    0.3728   -0.6609 O   0  0  0  0  0  0  0  0  0  0  0  0
   -1.3063   -0.2058    0.1384 C   0  0  0  0  0  0  0  0  0  0  0  0
   -1.6041   -0.8179    1.1431 O   0  0  0  0  0  0  0  0  0  0  0  0
    0.1046    0.0330   -0.3412 C   0  0  0  0  0  0  0  0  0  0  0  0
    0.9276   -1.2543   -0.2491 C   0  0  0  0  0  0  0  0  0  0  0  0
    2.3760   -0.9944   -0.6497 C   0  0  0  0  0  0  0  0  0  0  0  0
    2.9908    0.0882    0.2316 C   0  0  0  0  0  0  0  0  0  0  0  0
    2.1771    1.3746    0.1331 C   0  0  0  0  0  0  0  0  0  0  0  0
    0.7291    1.1246    0.5419 C   0  0  0  0  0  0  0  0  0  0  0  0
   -3.6983    0.0314    0.7252 H   0  0  0  0  0  0  0  0  0  0  0  0
   -4.0431   -0.4872   -0.9472 H   0  0  0  0  0  0  0  0  0  0  0  0
   -4.0200    1.2559   -0.5486 H   0  0  0  0  0  0  0  0  0  0  0  0
    0.0583    0.3851   -1.3750 H   0  0  0  0  0  0  0  0  0  0  0  0
    0.8808   -1.6231    0.7777 H   0  0  0  0  0  0  0  0  0  0  0  0
    0.4890   -2.0159   -0.8971 H   0  0  0  0  0  0  0  0  0  0  0  0
    2.9482   -1.9189   -0.5607 H   0  0  0  0  0  0  0  0  0  0  0  0
    2.4100   -0.6757   -1.6935 H   0  0  0  0  0  0  0  0  0  0  0  0
    3.0035   -0.2537    1.2685 H   0  0  0  0  0  0  0  0  0  0  0  0
    4.0210    0.2760   -0.0747 H   0  0  0  0  0  0  0  0  0  0  0  0
    2.6077    2.1403    0.7799 H   0  0  0  0  0  0  0  0  0  0  0  0
    2.2041    1.7445   -0.8937 H   0  0  0  0  0  0  0  0  0  0  0  0
    0.6876    0.7968    1.5832 H   0  0  0  0  0  0  0  0  0  0  0  0
    0.1476    2.0444    0.4513 H   0  0  0  0  0  0  0  0  0  0  0  0
  1  2  1  0  0  0  0
  2  3  1  0  0  0  0
  3  4  2  0  0  0  0
  3  5  1  0  0  0  0
  5  6  1  0  0  0  0
  6  7  1  0  0  0  0
  7  8  1  0  0  0  0
  8  9  1  0  0  0  0
  5 10  1  0  0  0  0
  9 10  1  0  0  0  0
  1 11  1  0  0  0  0
  1 12  1  0  0  0  0
  1 13  1  0  0  0  0
  5 14  1  0  0  0  0
  6 15  1  0  0  0  0
  6 16  1  0  0  0  0
  7 17  1  0  0  0  0
  7 18  1  0  0  0  0
  8 19  1  0  0  0  0
  8 20  1  0  0  0  0
  9 21  1  0  0  0  0
  9 22  1  0  0  0  0
 10 23  1  0  0  0  0
 10 24  1  0  0  0  0
M  END
