 xtb: 6.7.1 (edcfbbe)
          04052509003D

 22 23  0     0  0            999 V2000
    1.5768    0.5054   -1.7222 C   0  0  0  0  0  0  0  0  0  0  0  0
    2.9482    0.5742   -1.8765 C   0  0  0  0  0  0  0  0  0  0  0  0
    3.7729    0.4478   -0.7692 C   0  0  0  0  0  0  0  0  0  0  0  0
    3.2247    0.2540    0.4962 C   0  0  0  0  0  0  0  0  0  0  0  0
    1.8413    0.1941    0.6415 C   0  0  0  0  0  0  0  0  0  0  0  0
    1.0058    0.3187   -0.4677 C   0  0  0  0  0  0  0  0  0  0  0  0
   -0.4625    0.2501   -0.3070 C   0  0  0  0  0  0  0  0  0  0  0  0
   -1.1322    1.2224    0.4251 C   0  0  0  0  0  0  0  0  0  0  0  0
   -2.5059    1.1615    0.5868 C   0  0  0  0  0  0  0  0  0  0  0  0
   -3.2376    0.1205    0.0180 C   0  0  0  0  0  0  0  0  0  0  0  0
   -2.5736   -0.8592   -0.7170 C   0  0  0  0  0  0  0  0  0  0  0  0
   -1.1915   -0.7923   -0.8799 C   0  0  0  0  0  0  0  0  0  0  0  0
   -0.3879   -2.0322   -1.7607 Cl  0  0  0  0  0  0  0  0  0  0  0  0
   -3.4655   -2.1542   -1.4143 Cl  0  0  0  0  0  0  0  0  0  0  0  0
   -4.9436    0.0352    0.2215 Cl  0  0  0  0  0  0  0  0  0  0  0  0
   -3.3191    2.3730    1.4986 Cl  0  0  0  0  0  0  0  0  0  0  0  0
    1.1680   -0.0776    2.2084 Cl  0  0  0  0  0  0  0  0  0  0  0  0
    4.2489    0.0842    1.8758 Cl  0  0  0  0  0  0  0  0  0  0  0  0
    5.4862    0.5250   -0.9508 Cl  0  0  0  0  0  0  0  0  0  0  0  0
    0.9331    0.6058   -2.5803 H   0  0  0  0  0  0  0  0  0  0  0  0
    3.3869    0.7229   -2.8488 H   0  0  0  0  0  0  0  0  0  0  0  0
   -0.5788    2.0346    0.8667 H   0  0  0  0  0  0  0  0  0  0  0  0
  1  2  4  0  0  0  0
  2  3  4  0  0  0  0
  3  4  4  0  0  0  0
  4  5  4  0  0  0  0
  1  6  4  0  0  0  0
  5  6  4  0  0  0  0
  6  7  1  0  0  0  0
  7  8  4  0  0  0  0
  8  9  4  0  0  0  0
  9 10  4  0  0  0  0
 10 11  4  0  0  0  0
  7 12  4  0  0  0  0
 11 12  4  0  0  0  0
 12 13  1  0  0  0  0
 11 14  1  0  0  0  0
 10 15  1  0  0  0  0
  9 16  1  0  0  0  0
  5 17  1  0  0  0  0
  4 18  1  0  0  0  0
  3 19  1  0  0  0  0
  1 20  1  0  0  0  0
  2 21  1  0  0  0  0
  8 22  1  0  0  0  0
M  END
