 xtb: 6.7.1 (edcfbbe)
          04062507063D

 24 24  0     0  0            999 V2000
   -3.2381   -0.7198    0.8848 C   0  0  0  0  0  0  0  0  0  0  0  0
   -2.0161   -0.0696    0.4467 N   0  0  0  0  0  0  0  0  0  0  0  0
   -1.4523    0.9402    1.3143 C   0  0  0  0  0  0  0  0  0  0  0  0
   -1.5930   -0.3316   -0.8047 C   0  0  0  0  0  0  0  0  0  0  0  0
   -2.2775   -0.9734   -1.6084 O   0  0  0  0  0  0  0  0  0  0  0  0
   -0.3816    0.2039   -1.2067 N   0  0  0  0  0  0  0  0  0  0  0  0
    0.8292    0.1802   -0.4994 C   0  0  0  0  0  0  0  0  0  0  0  0
    1.8697    1.0007   -0.9312 C   0  0  0  0  0  0  0  0  0  0  0  0
    3.0773    1.0047   -0.2599 C   0  0  0  0  0  0  0  0  0  0  0  0
    3.2664    0.1921    0.8463 C   0  0  0  0  0  0  0  0  0  0  0  0
    2.2424   -0.6403    1.2648 C   0  0  0  0  0  0  0  0  0  0  0  0
    1.0319   -0.6553    0.5958 C   0  0  0  0  0  0  0  0  0  0  0  0
   -3.0672   -1.7888    1.0239 H   0  0  0  0  0  0  0  0  0  0  0  0
   -4.0153   -0.6014    0.1281 H   0  0  0  0  0  0  0  0  0  0  0  0
   -3.5614   -0.2794    1.8217 H   0  0  0  0  0  0  0  0  0  0  0  0
   -0.7850    1.5875    0.7528 H   0  0  0  0  0  0  0  0  0  0  0  0
   -0.8952    0.4877    2.1376 H   0  0  0  0  0  0  0  0  0  0  0  0
   -2.2622    1.5447    1.7225 H   0  0  0  0  0  0  0  0  0  0  0  0
   -0.2834    0.2102   -2.2138 H   0  0  0  0  0  0  0  0  0  0  0  0
    1.7226    1.6320   -1.7943 H   0  0  0  0  0  0  0  0  0  0  0  0
    3.8745    1.6468   -0.6019 H   0  0  0  0  0  0  0  0  0  0  0  0
    4.2089    0.1997    1.3710 H   0  0  0  0  0  0  0  0  0  0  0  0
    2.3880   -1.2934    2.1118 H   0  0  0  0  0  0  0  0  0  0  0  0
    0.2487   -1.3313    0.9028 H   0  0  0  0  0  0  0  0  0  0  0  0
  1  2  1  0  0  0  0
  2  3  1  0  0  0  0
  2  4  4  0  0  0  0
  4  5  2  0  0  0  0
  4  6  1  0  0  0  0
  6  7  1  0  0  0  0
  7  8  4  0  0  0  0
  8  9  4  0  0  0  0
  9 10  4  0  0  0  0
 10 11  4  0  0  0  0
  7 12  4  0  0  0  0
 11 12  4  0  0  0  0
  1 13  1  0  0  0  0
  1 14  1  0  0  0  0
  1 15  1  0  0  0  0
  3 16  1  0  0  0  0
  3 17  1  0  0  0  0
  3 18  1  0  0  0  0
  6 19  1  0  0  0  0
  8 20  1  0  0  0  0
  9 21  1  0  0  0  0
 10 22  1  0  0  0  0
 11 23  1  0  0  0  0
 12 24  1  0  0  0  0
M  END
