 xtb: 6.7.1 (edcfbbe)
          04062518003D

 24 24  0     0  0            999 V2000
   -2.5540   -0.6976   -0.3168 C   0  0  0  0  0  0  0  0  0  0  0  0
   -1.1743   -0.3078    0.2258 C   0  0  0  0  0  0  0  0  0  0  0  0
   -1.2157   -0.2696    1.3261 H   0  0  0  0  0  0  0  0  0  0  0  0
   -0.7194    1.0607   -0.3206 C   0  0  0  0  0  0  0  0  0  0  0  0
   -0.7239    1.0103   -1.4164 H   0  0  0  0  0  0  0  0  0  0  0  0
    0.7090    1.3334    0.1721 C   0  0  0  0  0  0  0  0  0  0  0  0
    0.7113    1.4125    1.2672 H   0  0  0  0  0  0  0  0  0  0  0  0
    1.6340    0.1662   -0.2208 C   0  0  0  0  0  0  0  0  0  0  0  0
    1.6941    0.1039   -1.3206 H   0  0  0  0  0  0  0  0  0  0  0  0
    1.0461   -1.1565    0.3092 C   0  0  0  0  0  0  0  0  0  0  0  0
    1.0541   -1.1286    1.4108 H   0  0  0  0  0  0  0  0  0  0  0  0
   -0.2700   -1.3226   -0.1762 O   0  0  0  0  0  0  0  0  0  0  0  0
    1.7739   -2.2671   -0.0469 O   0  0  0  0  0  0  0  0  0  0  0  0
    2.9151    0.3340    0.3256 O   0  0  0  0  0  0  0  0  0  0  0  0
    1.2305    2.5575   -0.2823 O   0  0  0  0  0  0  0  0  0  0  0  0
   -1.6081    2.0931    0.0033 O   0  0  0  0  0  0  0  0  0  0  0  0
   -3.1010   -1.7980    0.3592 O   0  0  0  0  0  0  0  0  0  0  0  0
   -2.4585   -0.9044   -1.3894 H   0  0  0  0  0  0  0  0  0  0  0  0
   -3.2438    0.1351   -0.1700 H   0  0  0  0  0  0  0  0  0  0  0  0
    1.7489   -2.3861   -1.0100 H   0  0  0  0  0  0  0  0  0  0  0  0
    3.1761    1.2627    0.2096 H   0  0  0  0  0  0  0  0  0  0  0  0
    1.0176    2.6862   -1.2180 H   0  0  0  0  0  0  0  0  0  0  0  0
   -1.5740    2.2805    0.9526 H   0  0  0  0  0  0  0  0  0  0  0  0
   -2.5010   -2.5510    0.2577 H   0  0  0  0  0  0  0  0  0  0  0  0
  1  2  1  0  0  0  0
  2  3  1  0  0  0  0
  2  4  1  0  0  0  0
  4  5  1  0  0  0  0
  4  6  1  0  0  0  0
  6  7  1  0  0  0  0
  6  8  1  0  0  0  0
  8  9  1  0  0  0  0
  8 10  1  0  0  0  0
 10 11  1  0  0  0  0
  2 12  1  0  0  0  0
 10 12  1  0  0  0  0
 10 13  1  0  0  0  0
  8 14  1  0  0  0  0
  6 15  1  0  0  0  0
  4 16  1  0  0  0  0
  1 17  1  0  0  0  0
  1 18  1  0  0  0  0
  1 19  1  0  0  0  0
 13 20  1  0  0  0  0
 14 21  1  0  0  0  0
 15 22  1  0  0  0  0
 16 23  1  0  0  0  0
 17 24  1  0  0  0  0
M  END
