 xtb: 6.7.1 (edcfbbe)
          04052503223D

 20 19  0     0  0            999 V2000
   -1.7916   -0.7324   -0.5773 C   0  0  0  0  0  0  0  0  0  0  0  0
   -0.7024    0.3193   -0.3644 C   0  0  0  0  0  0  0  0  0  0  0  0
   -1.0044    1.1249    0.8979 C   0  0  0  0  0  0  0  0  0  0  0  0
    0.7024   -0.3194   -0.3644 C   0  0  0  0  0  0  0  0  0  0  0  0
    1.7916    0.7324   -0.5773 C   0  0  0  0  0  0  0  0  0  0  0  0
    1.0044   -1.1248    0.8980 C   0  0  0  0  0  0  0  0  0  0  0  0
   -1.8329   -1.4240    0.2605 H   0  0  0  0  0  0  0  0  0  0  0  0
   -2.7636   -0.2527   -0.6667 H   0  0  0  0  0  0  0  0  0  0  0  0
   -1.6060   -1.3016   -1.4855 H   0  0  0  0  0  0  0  0  0  0  0  0
   -0.7359    1.0066   -1.2188 H   0  0  0  0  0  0  0  0  0  0  0  0
   -1.0835    0.4719    1.7630 H   0  0  0  0  0  0  0  0  0  0  0  0
   -0.2311    1.8645    1.0866 H   0  0  0  0  0  0  0  0  0  0  0  0
   -1.9510    1.6484    0.7825 H   0  0  0  0  0  0  0  0  0  0  0  0
    0.7359   -1.0067   -1.2188 H   0  0  0  0  0  0  0  0  0  0  0  0
    2.7637    0.2527   -0.6663 H   0  0  0  0  0  0  0  0  0  0  0  0
    1.6062    1.3012   -1.4857 H   0  0  0  0  0  0  0  0  0  0  0  0
    1.8328    1.4242    0.2603 H   0  0  0  0  0  0  0  0  0  0  0  0
    1.9514   -1.6476    0.7829 H   0  0  0  0  0  0  0  0  0  0  0  0
    0.2315   -1.8649    1.0862 H   0  0  0  0  0  0  0  0  0  0  0  0
    1.0827   -0.4719    1.7632 H   0  0  0  0  0  0  0  0  0  0  0  0
  1  2  1  0  0  0  0
  2  3  1  0  0  0  0
  2  4  1  0  0  0  0
  4  5  1  0  0  0  0
  4  6  1  0  0  0  0
  1  7  1  0  0  0  0
  1  8  1  0  0  0  0
  1  9  1  0  0  0  0
  2 10  1  0  0  0  0
  3 11  1  0  0  0  0
  3 12  1  0  0  0  0
  3 13  1  0  0  0  0
  4 14  1  0  0  0  0
  5 15  1  0  0  0  0
  5 16  1  0  0  0  0
  5 17  1  0  0  0  0
  6 18  1  0  0  0  0
  6 19  1  0  0  0  0
  6 20  1  0  0  0  0
M  END
