 xtb: 6.7.1 (edcfbbe)
          04062520053D

 27 27  0     0  0            999 V2000
   -2.8374    0.7993    0.7443 C   0  0  0  0  0  0  0  0  0  0  0  0
   -1.5271    0.5216    0.0688 C   0  0  0  0  0  0  0  0  0  0  0  0
   -0.9108    1.4210   -0.6859 C   0  0  0  0  0  0  0  0  0  0  0  0
    0.3908    1.2134   -1.3942 C   0  0  0  0  0  0  0  0  0  0  0  0
    1.1382   -0.0396   -0.9287 C   0  0  0  0  0  0  0  0  0  0  0  0
    1.8336   -0.3406   -1.7204 H   0  0  0  0  0  0  0  0  0  0  0  0
    0.1231   -1.1739   -0.7488 C   0  0  0  0  0  0  0  0  0  0  0  0
   -0.9065   -0.8355    0.3275 C   0  0  0  0  0  0  0  0  0  0  0  0
   -0.3988   -0.7988    1.3086 H   0  0  0  0  0  0  0  0  0  0  0  0
   -1.8553   -1.8921    0.3382 O   0  0  0  0  0  0  0  0  0  0  0  0
    1.9537    0.1609    0.3290 C   0  0  0  0  0  0  0  0  0  0  0  0
    1.6879    1.0804    1.2433 C   0  0  0  0  0  0  0  0  0  0  0  0
    3.1171   -0.7754    0.4720 C   0  0  0  0  0  0  0  0  0  0  0  0
   -3.6146    0.1485    0.3451 H   0  0  0  0  0  0  0  0  0  0  0  0
   -3.1372    1.8308    0.5809 H   0  0  0  0  0  0  0  0  0  0  0  0
   -2.7568    0.6253    1.8172 H   0  0  0  0  0  0  0  0  0  0  0  0
   -1.3690    2.3902   -0.8398 H   0  0  0  0  0  0  0  0  0  0  0  0
    0.1822    1.1254   -2.4656 H   0  0  0  0  0  0  0  0  0  0  0  0
    1.0240    2.0943   -1.2638 H   0  0  0  0  0  0  0  0  0  0  0  0
   -0.4151   -1.3360   -1.6844 H   0  0  0  0  0  0  0  0  0  0  0  0
    0.6164   -2.1090   -0.4808 H   0  0  0  0  0  0  0  0  0  0  0  0
   -2.4657   -1.7613    1.0753 H   0  0  0  0  0  0  0  0  0  0  0  0
    2.2954    1.1833    2.1273 H   0  0  0  0  0  0  0  0  0  0  0  0
    0.8585    1.7599    1.1578 H   0  0  0  0  0  0  0  0  0  0  0  0
    3.6112   -0.6408    1.4301 H   0  0  0  0  0  0  0  0  0  0  0  0
    2.7861   -1.8091    0.3899 H   0  0  0  0  0  0  0  0  0  0  0  0
    3.8406   -0.5957   -0.3223 H   0  0  0  0  0  0  0  0  0  0  0  0
  1  2  1  0  0  0  0
  2  3  2  0  0  0  0
  3  4  1  0  0  0  0
  4  5  1  0  0  0  0
  5  6  1  0  0  0  0
  5  7  1  0  0  0  0
  2  8  1  0  0  0  0
  7  8  1  0  0  0  0
  8  9  1  0  0  0  0
  8 10  1  0  0  0  0
  5 11  1  0  0  0  0
 11 12  2  0  0  0  0
 11 13  1  0  0  0  0
  1 14  1  0  0  0  0
  1 15  1  0  0  0  0
  1 16  1  0  0  0  0
  3 17  1  0  0  0  0
  4 18  1  0  0  0  0
  4 19  1  0  0  0  0
  7 20  1  0  0  0  0
  7 21  1  0  0  0  0
 10 22  1  0  0  0  0
 12 23  1  0  0  0  0
 12 24  1  0  0  0  0
 13 25  1  0  0  0  0
 13 26  1  0  0  0  0
 13 27  1  0  0  0  0
M  END
