 xtb: 6.7.1 (edcfbbe)
          04062518003D

 24 24  0     0  0            999 V2000
   -2.5532   -0.6901   -0.3311 C   0  0  0  0  0  0  0  0  0  0  0  0
   -1.1606   -0.3328    0.2086 C   0  0  0  0  0  0  0  0  0  0  0  0
   -1.1757   -0.3131    1.3125 H   0  0  0  0  0  0  0  0  0  0  0  0
   -0.7020    1.0402   -0.3120 C   0  0  0  0  0  0  0  0  0  0  0  0
   -0.7246    1.0252   -1.4071 H   0  0  0  0  0  0  0  0  0  0  0  0
    0.7385    1.3386    0.1411 C   0  0  0  0  0  0  0  0  0  0  0  0
    0.7576    1.4982    1.2332 H   0  0  0  0  0  0  0  0  0  0  0  0
    1.6738    0.1661   -0.1660 C   0  0  0  0  0  0  0  0  0  0  0  0
    1.8352    0.1223   -1.2517 H   0  0  0  0  0  0  0  0  0  0  0  0
    1.0428   -1.1663    0.2842 C   0  0  0  0  0  0  0  0  0  0  0  0
    1.0137   -1.1748    1.3967 H   0  0  0  0  0  0  0  0  0  0  0  0
   -0.2589   -1.3357   -0.2161 O   0  0  0  0  0  0  0  0  0  0  0  0
    1.8314   -2.1924   -0.1978 O   0  0  0  0  0  0  0  0  0  0  0  0
    2.8806    0.3790    0.5176 O   0  0  0  0  0  0  0  0  0  0  0  0
    1.2347    2.4784   -0.5141 O   0  0  0  0  0  0  0  0  0  0  0  0
   -1.5675    2.0771    0.0716 O   0  0  0  0  0  0  0  0  0  0  0  0
   -3.1798   -1.7288    0.3729 O   0  0  0  0  0  0  0  0  0  0  0  0
   -2.4362   -1.0498   -1.3547 H   0  0  0  0  0  0  0  0  0  0  0  0
   -3.1671    0.2179   -0.3350 H   0  0  0  0  0  0  0  0  0  0  0  0
    1.3410   -3.0280   -0.1486 H   0  0  0  0  0  0  0  0  0  0  0  0
    3.5102   -0.3130    0.2661 H   0  0  0  0  0  0  0  0  0  0  0  0
    0.5625    3.1772   -0.4706 H   0  0  0  0  0  0  0  0  0  0  0  0
   -1.5908    2.1483    1.0384 H   0  0  0  0  0  0  0  0  0  0  0  0
   -3.4088   -1.4320    1.2654 H   0  0  0  0  0  0  0  0  0  0  0  0
  1  2  1  0  0  0  0
  2  3  1  0  0  0  0
  2  4  1  0  0  0  0
  4  5  1  0  0  0  0
  4  6  1  0  0  0  0
  6  7  1  0  0  0  0
  6  8  1  0  0  0  0
  8  9  1  0  0  0  0
  8 10  1  0  0  0  0
 10 11  1  0  0  0  0
  2 12  1  0  0  0  0
 10 12  1  0  0  0  0
 10 13  1  0  0  0  0
  8 14  1  0  0  0  0
  6 15  1  0  0  0  0
  4 16  1  0  0  0  0
  1 17  1  0  0  0  0
  1 18  1  0  0  0  0
  1 19  1  0  0  0  0
 13 20  1  0  0  0  0
 14 21  1  0  0  0  0
 15 22  1  0  0  0  0
 16 23  1  0  0  0  0
 17 24  1  0  0  0  0
M  END
