 xtb: 6.7.1 (edcfbbe)
          04032520553D

 26 28  0     0  0            999 V2000
   -4.0537   -0.3906   -0.0031 C   0  0  0  0  0  0  0  0  0  0  0  0
   -3.9192    0.9900   -0.0024 C   0  0  0  0  0  0  0  0  0  0  0  0
   -2.6587    1.5589   -0.0005 C   0  0  0  0  0  0  0  0  0  0  0  0
   -1.5172    0.7597    0.0006 C   0  0  0  0  0  0  0  0  0  0  0  0
   -1.6531   -0.6355    0.0001 C   0  0  0  0  0  0  0  0  0  0  0  0
   -2.9275   -1.1947   -0.0017 C   0  0  0  0  0  0  0  0  0  0  0  0
   -0.4753   -1.5318    0.0016 C   0  0  0  0  0  0  0  0  0  0  0  0
   -0.6129   -2.7587    0.0033 O   0  0  0  0  0  0  0  0  0  0  0  0
    0.8281   -0.8921    0.0008 C   0  0  0  0  0  0  0  0  0  0  0  0
    1.9863   -1.6813    0.0001 C   0  0  0  0  0  0  0  0  0  0  0  0
    3.2380   -1.1222   -0.0012 C   0  0  0  0  0  0  0  0  0  0  0  0
    3.3984    0.2767   -0.0016 C   0  0  0  0  0  0  0  0  0  0  0  0
    2.2390    1.0719   -0.0003 C   0  0  0  0  0  0  0  0  0  0  0  0
    0.9764    0.5086    0.0008 C   0  0  0  0  0  0  0  0  0  0  0  0
   -0.1928    1.4058    0.0021 C   0  0  0  0  0  0  0  0  0  0  0  0
   -0.0724    2.6270    0.0040 O   0  0  0  0  0  0  0  0  0  0  0  0
    4.6185    0.8387   -0.0026 N   0  0  0  0  0  0  0  0  0  0  0  0
   -5.0343   -0.8401   -0.0048 H   0  0  0  0  0  0  0  0  0  0  0  0
   -4.7944    1.6204   -0.0034 H   0  0  0  0  0  0  0  0  0  0  0  0
   -2.5274    2.6309    0.0001 H   0  0  0  0  0  0  0  0  0  0  0  0
   -3.0071   -2.2719   -0.0021 H   0  0  0  0  0  0  0  0  0  0  0  0
    1.8582   -2.7538    0.0002 H   0  0  0  0  0  0  0  0  0  0  0  0
    4.1127   -1.7537   -0.0020 H   0  0  0  0  0  0  0  0  0  0  0  0
    2.3162    2.1495   -0.0003 H   0  0  0  0  0  0  0  0  0  0  0  0
    4.7130    1.8383   -0.0042 H   0  0  0  0  0  0  0  0  0  0  0  0
    5.4408    0.2624   -0.0048 H   0  0  0  0  0  0  0  0  0  0  0  0
  1  2  4  0  0  0  0
  2  3  4  0  0  0  0
  3  4  4  0  0  0  0
  4  5  4  0  0  0  0
  1  6  4  0  0  0  0
  5  6  4  0  0  0  0
  5  7  1  0  0  0  0
  7  8  2  0  0  0  0
  7  9  1  0  0  0  0
  9 10  4  0  0  0  0
 10 11  2  0  0  0  0
 11 12  4  0  0  0  0
 12 13  4  0  0  0  0
  9 14  4  0  0  0  0
 13 14  4  0  0  0  0
  4 15  1  0  0  0  0
 14 15  1  0  0  0  0
 15 16  2  0  0  0  0
 12 17  4  0  0  0  0
  1 18  1  0  0  0  0
  2 19  1  0  0  0  0
  3 20  1  0  0  0  0
  6 21  1  0  0  0  0
 10 22  1  0  0  0  0
 11 23  1  0  0  0  0
 13 24  1  0  0  0  0
 17 25  1  0  0  0  0
 17 26  1  0  0  0  0
M  END
