 xtb: 6.7.1 (edcfbbe)
          04042516043D

 13 12  0     0  0            999 V2000
   -2.4085    0.0086    0.0002 C   0  0  0  0  0  0  0  0  0  0  0  0
   -0.9733    0.5202   -0.0002 C   0  0  0  0  0  0  0  0  0  0  0  0
    0.0297   -0.6391   -0.0000 C   0  0  0  0  0  0  0  0  0  0  0  0
    1.3957   -0.1578   -0.0002 C   0  0  0  0  0  0  0  0  0  0  0  0
    2.5153    0.2657    0.0002 C   0  0  0  0  0  0  0  0  0  0  0  0
   -2.5980   -0.5993   -0.8820 H   0  0  0  0  0  0  0  0  0  0  0  0
   -2.5977   -0.5986    0.8829 H   0  0  0  0  0  0  0  0  0  0  0  0
   -3.1079    0.8410   -0.0000 H   0  0  0  0  0  0  0  0  0  0  0  0
   -0.8028    1.1417   -0.8821 H   0  0  0  0  0  0  0  0  0  0  0  0
   -0.8024    1.1422    0.8813 H   0  0  0  0  0  0  0  0  0  0  0  0
   -0.1257   -1.2614   -0.8857 H   0  0  0  0  0  0  0  0  0  0  0  0
   -0.1257   -1.2612    0.8858 H   0  0  0  0  0  0  0  0  0  0  0  0
    3.5008    0.6240    0.0003 H   0  0  0  0  0  0  0  0  0  0  0  0
  1  2  1  0  0  0  0
  2  3  1  0  0  0  0
  3  4  1  0  0  0  0
  4  5  3  0  0  0  0
  1  6  1  0  0  0  0
  1  7  1  0  0  0  0
  1  8  1  0  0  0  0
  2  9  1  0  0  0  0
  2 10  1  0  0  0  0
  3 11  1  0  0  0  0
  3 12  1  0  0  0  0
  5 13  1  0  0  0  0
M  END
