 xtb: 6.7.1 (edcfbbe)
          04032521303D

 19 19  0     0  0            999 V2000
   -1.9039   -0.0437    0.2459 C   0  0  0  0  0  0  0  0  0  0  0  0
   -0.9082   -1.1894    0.4632 C   0  0  0  0  0  0  0  0  0  0  0  0
    0.1935   -1.1479   -0.5889 C   0  0  0  0  0  0  0  0  0  0  0  0
    1.0555    0.1140   -0.4349 C   0  0  0  0  0  0  0  0  0  0  0  0
    0.2399    1.2705    0.1652 C   0  0  0  0  0  0  0  0  0  0  0  0
   -1.2065    1.2036   -0.3127 C   0  0  0  0  0  0  0  0  0  0  0  0
    2.1637   -0.2222    0.3867 O   0  0  0  0  0  0  0  0  0  0  0  0
   -2.3865    0.1941    1.1951 H   0  0  0  0  0  0  0  0  0  0  0  0
   -2.6842   -0.3591   -0.4485 H   0  0  0  0  0  0  0  0  0  0  0  0
   -0.4471   -1.1100    1.4487 H   0  0  0  0  0  0  0  0  0  0  0  0
   -1.4276   -2.1474    0.4195 H   0  0  0  0  0  0  0  0  0  0  0  0
    0.8518   -2.0114   -0.4848 H   0  0  0  0  0  0  0  0  0  0  0  0
   -0.2489   -1.1724   -1.5850 H   0  0  0  0  0  0  0  0  0  0  0  0
    1.4310    0.4072   -1.4295 H   0  0  0  0  0  0  0  0  0  0  0  0
    0.2664    1.1894    1.2535 H   0  0  0  0  0  0  0  0  0  0  0  0
    0.6871    2.2260   -0.1152 H   0  0  0  0  0  0  0  0  0  0  0  0
   -1.7423    2.1007   -0.0005 H   0  0  0  0  0  0  0  0  0  0  0  0
   -1.2115    1.1802   -1.4042 H   0  0  0  0  0  0  0  0  0  0  0  0
    2.7108    0.5627    0.5219 H   0  0  0  0  0  0  0  0  0  0  0  0
  1  2  1  0  0  0  0
  2  3  1  0  0  0  0
  3  4  1  0  0  0  0
  4  5  1  0  0  0  0
  1  6  1  0  0  0  0
  5  6  1  0  0  0  0
  4  7  1  0  0  0  0
  1  8  1  0  0  0  0
  1  9  1  0  0  0  0
  2 10  1  0  0  0  0
  2 11  1  0  0  0  0
  3 12  1  0  0  0  0
  3 13  1  0  0  0  0
  4 14  1  0  0  0  0
  5 15  1  0  0  0  0
  5 16  1  0  0  0  0
  6 17  1  0  0  0  0
  6 18  1  0  0  0  0
  7 19  1  0  0  0  0
M  END
