 xtb: 6.7.1 (edcfbbe)
          04032520533D

  8  7  0     0  0            999 V2000
   -1.0185   -1.6079   -0.0000 C   0  0  0  0  0  0  0  0  0  0  0  0
   -0.4684    0.0839    0.0005 S   0  0  0  0  0  0  0  0  0  0  0  0
   -0.7983    0.7665    1.2243 O   0  0  0  0  0  0  0  0  0  0  0  0
   -0.7971    0.7662   -1.2238 O   0  0  0  0  0  0  0  0  0  0  0  0
    1.5839   -0.0600   -0.0008 Cl  0  0  0  0  0  0  0  0  0  0  0  0
   -0.1433   -2.2412    0.0542 H   0  0  0  0  0  0  0  0  0  0  0  0
   -1.6476   -1.7281    0.8717 H   0  0  0  0  0  0  0  0  0  0  0  0
   -1.5596   -1.7580   -0.9245 H   0  0  0  0  0  0  0  0  0  0  0  0
  1  2  1  0  0  0  0
  2  3  2  0  0  0  0
  2  4  2  0  0  0  0
  2  5  1  0  0  0  0
  1  6  1  0  0  0  0
  1  7  1  0  0  0  0
  1  8  1  0  0  0  0
M  END
