 xtb: 6.7.1 (edcfbbe)
          04062518003D

 24 24  0     0  0            999 V2000
   -2.1636   -1.2408   -0.0327 C   0  0  0  0  0  0  0  0  0  0  0  0
   -1.2078   -0.3533    0.7939 C   0  0  0  0  0  0  0  0  0  0  0  0
   -1.7024   -0.1025    1.7383 H   0  0  0  0  0  0  0  0  0  0  0  0
   -0.8636    0.9557    0.0554 C   0  0  0  0  0  0  0  0  0  0  0  0
   -1.0441    0.8305   -1.0214 H   0  0  0  0  0  0  0  0  0  0  0  0
    0.6215    1.2858    0.2537 C   0  0  0  0  0  0  0  0  0  0  0  0
    0.8129    1.3724    1.3372 H   0  0  0  0  0  0  0  0  0  0  0  0
    1.4630    0.1439   -0.3183 C   0  0  0  0  0  0  0  0  0  0  0  0
    1.2924    0.0819   -1.3987 H   0  0  0  0  0  0  0  0  0  0  0  0
    1.0216   -1.1951    0.3254 C   0  0  0  0  0  0  0  0  0  0  0  0
    1.8460   -1.5630    0.9504 H   0  0  0  0  0  0  0  0  0  0  0  0
   -0.0452   -1.0610    1.2286 O   0  0  0  0  0  0  0  0  0  0  0  0
    0.7360   -2.1059   -0.6965 O   0  0  0  0  0  0  0  0  0  0  0  0
    2.8413    0.3435   -0.1664 O   0  0  0  0  0  0  0  0  0  0  0  0
    0.9695    2.4792   -0.3955 O   0  0  0  0  0  0  0  0  0  0  0  0
   -1.5948    2.0530    0.5552 O   0  0  0  0  0  0  0  0  0  0  0  0
   -1.8382   -1.3283   -1.3963 O   0  0  0  0  0  0  0  0  0  0  0  0
   -3.1656   -0.8094    0.0036 H   0  0  0  0  0  0  0  0  0  0  0  0
   -2.1925   -2.2348    0.4307 H   0  0  0  0  0  0  0  0  0  0  0  0
    0.7553   -3.0144   -0.3570 H   0  0  0  0  0  0  0  0  0  0  0  0
    3.0274    0.7552    0.6901 H   0  0  0  0  0  0  0  0  0  0  0  0
    0.3108    3.1507   -0.1569 H   0  0  0  0  0  0  0  0  0  0  0  0
   -2.5088    2.0120    0.2443 H   0  0  0  0  0  0  0  0  0  0  0  0
   -0.9411   -1.7065   -1.4754 H   0  0  0  0  0  0  0  0  0  0  0  0
  1  2  1  0  0  0  0
  2  3  1  0  0  0  0
  2  4  1  0  0  0  0
  4  5  1  0  0  0  0
  4  6  1  0  0  0  0
  6  7  1  0  0  0  0
  6  8  1  0  0  0  0
  8  9  1  0  0  0  0
  8 10  1  0  0  0  0
 10 11  1  0  0  0  0
  2 12  1  0  0  0  0
 10 12  1  0  0  0  0
 10 13  1  0  0  0  0
  8 14  1  0  0  0  0
  6 15  1  0  0  0  0
  4 16  1  0  0  0  0
  1 17  1  0  0  0  0
  1 18  1  0  0  0  0
  1 19  1  0  0  0  0
 13 20  1  0  0  0  0
 14 21  1  0  0  0  0
 15 22  1  0  0  0  0
 16 23  1  0  0  0  0
 17 24  1  0  0  0  0
M  END
