 xtb: 6.7.1 (edcfbbe)
          04032521483D

 11 10  0     0  0            999 V2000
   -2.8188   -0.2565   -0.3630 C   0  0  0  0  0  0  0  0  0  0  0  0
   -1.4004   -0.5092   -0.4204 O   0  0  0  0  0  0  0  0  0  0  0  0
   -0.6131    0.3393    0.1622 C   0  0  0  0  0  0  0  0  0  0  0  0
   -0.9045    1.3404    0.7593 O   0  0  0  0  0  0  0  0  0  0  0  0
    0.8770   -0.0938    0.0051 C   0  0  0  0  0  0  0  0  0  0  0  0
    1.6048    0.8844   -0.5488 F   0  0  0  0  0  0  0  0  0  0  0  0
    1.4237   -0.3645    1.1983 F   0  0  0  0  0  0  0  0  0  0  0  0
    1.0298   -1.1805   -0.7550 F   0  0  0  0  0  0  0  0  0  0  0  0
   -3.2720   -1.0422   -0.9586 H   0  0  0  0  0  0  0  0  0  0  0  0
   -3.0336    0.7295   -0.7729 H   0  0  0  0  0  0  0  0  0  0  0  0
   -3.1560   -0.2992    0.6718 H   0  0  0  0  0  0  0  0  0  0  0  0
  1  2  1  0  0  0  0
  2  3  4  0  0  0  0
  3  4  2  0  0  0  0
  3  5  1  0  0  0  0
  5  6  1  0  0  0  0
  5  7  1  0  0  0  0
  5  8  1  0  0  0  0
  1  9  1  0  0  0  0
  1 10  1  0  0  0  0
  1 11  1  0  0  0  0
M  END
