 xtb: 6.7.1 (edcfbbe)
          04052516073D

 27 27  0     0  0            999 V2000
   -3.1721    0.2955    0.4775 C   0  0  0  0  0  0  0  0  0  0  0  0
   -1.6438    0.3629    0.4454 C   0  0  0  0  0  0  0  0  0  0  0  0
   -1.2816    0.3825    1.4815 H   0  0  0  0  0  0  0  0  0  0  0  0
   -1.1284    1.6018   -0.2799 C   0  0  0  0  0  0  0  0  0  0  0  0
    0.3941    1.6581   -0.2182 C   0  0  0  0  0  0  0  0  0  0  0  0
    1.0590    0.3739   -0.7739 C   0  0  0  0  0  0  0  0  0  0  0  0
    1.6069    0.6279   -1.6867 H   0  0  0  0  0  0  0  0  0  0  0  0
    0.0218   -0.6880   -1.1670 C   0  0  0  0  0  0  0  0  0  0  0  0
   -1.0711   -0.8990   -0.1607 C   0  0  0  0  0  0  0  0  0  0  0  0
   -1.4934   -2.0061    0.1226 O   0  0  0  0  0  0  0  0  0  0  0  0
    2.0734   -0.1355    0.2261 C   0  0  0  0  0  0  0  0  0  0  0  0
    1.8250   -1.0894    1.1087 C   0  0  0  0  0  0  0  0  0  0  0  0
    3.3976    0.5658    0.1675 C   0  0  0  0  0  0  0  0  0  0  0  0
   -3.5720    0.3391   -0.5332 H   0  0  0  0  0  0  0  0  0  0  0  0
   -3.4919   -0.6388    0.9328 H   0  0  0  0  0  0  0  0  0  0  0  0
   -3.5759    1.1256    1.0499 H   0  0  0  0  0  0  0  0  0  0  0  0
   -1.4696    1.5915   -1.3162 H   0  0  0  0  0  0  0  0  0  0  0  0
   -1.5415    2.4933    0.1944 H   0  0  0  0  0  0  0  0  0  0  0  0
    0.7464    2.5292   -0.7705 H   0  0  0  0  0  0  0  0  0  0  0  0
    0.6894    1.7872    0.8254 H   0  0  0  0  0  0  0  0  0  0  0  0
   -0.4811   -0.3632   -2.0821 H   0  0  0  0  0  0  0  0  0  0  0  0
    0.5113   -1.6405   -1.3765 H   0  0  0  0  0  0  0  0  0  0  0  0
    2.5693   -1.4028    1.8215 H   0  0  0  0  0  0  0  0  0  0  0  0
    0.8829   -1.6070    1.1640 H   0  0  0  0  0  0  0  0  0  0  0  0
    4.0451    0.2452    0.9783 H   0  0  0  0  0  0  0  0  0  0  0  0
    3.8910    0.3488   -0.7790 H   0  0  0  0  0  0  0  0  0  0  0  0
    3.2580    1.6433    0.2302 H   0  0  0  0  0  0  0  0  0  0  0  0
  1  2  1  0  0  0  0
  2  3  1  0  0  0  0
  2  4  1  0  0  0  0
  4  5  1  0  0  0  0
  5  6  1  0  0  0  0
  6  7  1  0  0  0  0
  6  8  1  0  0  0  0
  2  9  1  0  0  0  0
  8  9  1  0  0  0  0
  9 10  2  0  0  0  0
  6 11  1  0  0  0  0
 11 12  2  0  0  0  0
 11 13  1  0  0  0  0
  1 14  1  0  0  0  0
  1 15  1  0  0  0  0
  1 16  1  0  0  0  0
  4 17  1  0  0  0  0
  4 18  1  0  0  0  0
  5 19  1  0  0  0  0
  5 20  1  0  0  0  0
  8 21  1  0  0  0  0
  8 22  1  0  0  0  0
 12 23  1  0  0  0  0
 12 24  1  0  0  0  0
 13 25  1  0  0  0  0
 13 26  1  0  0  0  0
 13 27  1  0  0  0  0
M  END
