 xtb: 6.7.1 (edcfbbe)
          04062518003D

 24 24  0     0  0            999 V2000
   -2.3772   -0.7856   -0.0879 C   0  0  0  0  0  0  0  0  0  0  0  0
   -1.0116   -0.2718    0.3881 C   0  0  0  0  0  0  0  0  0  0  0  0
   -1.1245    0.0898    1.4214 H   0  0  0  0  0  0  0  0  0  0  0  0
   -0.5146    0.8798   -0.5002 C   0  0  0  0  0  0  0  0  0  0  0  0
   -0.4418    0.5197   -1.5325 H   0  0  0  0  0  0  0  0  0  0  0  0
    0.8769    1.3467   -0.0316 C   0  0  0  0  0  0  0  0  0  0  0  0
    0.7640    2.0006    0.8424 H   0  0  0  0  0  0  0  0  0  0  0  0
    1.7641    0.1498    0.4053 C   0  0  0  0  0  0  0  0  0  0  0  0
    2.7619    0.2943   -0.0202 H   0  0  0  0  0  0  0  0  0  0  0  0
    1.1833   -1.1711   -0.1136 C   0  0  0  0  0  0  0  0  0  0  0  0
    1.7712   -2.0071    0.2928 H   0  0  0  0  0  0  0  0  0  0  0  0
   -0.1080   -1.3847    0.4029 O   0  0  0  0  0  0  0  0  0  0  0  0
    1.2182   -1.1584   -1.5048 O   0  0  0  0  0  0  0  0  0  0  0  0
    1.9427    0.0919    1.7972 O   0  0  0  0  0  0  0  0  0  0  0  0
    1.5100    2.1444   -0.9969 O   0  0  0  0  0  0  0  0  0  0  0  0
   -1.4432    1.9296   -0.5468 O   0  0  0  0  0  0  0  0  0  0  0  0
   -2.9603   -1.6709    0.8326 O   0  0  0  0  0  0  0  0  0  0  0  0
   -2.2570   -1.2638   -1.0678 H   0  0  0  0  0  0  0  0  0  0  0  0
   -3.0611    0.0588   -0.1878 H   0  0  0  0  0  0  0  0  0  0  0  0
    1.0358   -2.0423   -1.8583 H   0  0  0  0  0  0  0  0  0  0  0  0
    1.1653   -0.3090    2.2134 H   0  0  0  0  0  0  0  0  0  0  0  0
    1.5855    1.6508   -1.8265 H   0  0  0  0  0  0  0  0  0  0  0  0
   -1.4318    2.4248    0.2854 H   0  0  0  0  0  0  0  0  0  0  0  0
   -2.3541   -2.4130    0.9718 H   0  0  0  0  0  0  0  0  0  0  0  0
  1  2  1  0  0  0  0
  2  3  1  0  0  0  0
  2  4  1  0  0  0  0
  4  5  1  0  0  0  0
  4  6  1  0  0  0  0
  6  7  1  0  0  0  0
  6  8  1  0  0  0  0
  8  9  1  0  0  0  0
  8 10  1  0  0  0  0
 10 11  1  0  0  0  0
  2 12  1  0  0  0  0
 10 12  1  0  0  0  0
 10 13  1  0  0  0  0
  8 14  1  0  0  0  0
  6 15  1  0  0  0  0
  4 16  1  0  0  0  0
  1 17  1  0  0  0  0
  1 18  1  0  0  0  0
  1 19  1  0  0  0  0
 13 20  1  0  0  0  0
 14 21  1  0  0  0  0
 15 22  1  0  0  0  0
 16 23  1  0  0  0  0
 17 24  1  0  0  0  0
M  END
