 xtb: 6.7.1 (edcfbbe)
          04032521143D

 20 20  0     0  0            999 V2000
   -1.8942    0.0000   -0.7901 C   0  0  0  0  0  0  0  0  0  0  0  0
   -1.1011   -0.0000    0.4215 N   0  0  0  0  0  0  0  0  0  0  0  0
   -0.2919    1.1943    0.5942 C   0  0  0  0  0  0  0  0  0  0  0  0
    0.9429    1.2489   -0.3146 C   0  0  0  0  0  0  0  0  0  0  0  0
    1.7949    0.0001   -0.0993 C   0  0  0  0  0  0  0  0  0  0  0  0
    0.9429   -1.2489   -0.3145 C   0  0  0  0  0  0  0  0  0  0  0  0
   -0.2921   -1.1944    0.5941 C   0  0  0  0  0  0  0  0  0  0  0  0
   -2.5307    0.8839   -0.7871 H   0  0  0  0  0  0  0  0  0  0  0  0
   -2.5302   -0.8843   -0.7875 H   0  0  0  0  0  0  0  0  0  0  0  0
   -1.3070    0.0003   -1.7189 H   0  0  0  0  0  0  0  0  0  0  0  0
   -0.9279    2.0659    0.4239 H   0  0  0  0  0  0  0  0  0  0  0  0
    0.0355    1.2103    1.6390 H   0  0  0  0  0  0  0  0  0  0  0  0
    0.6294    1.3052   -1.3593 H   0  0  0  0  0  0  0  0  0  0  0  0
    1.5191    2.1472   -0.0888 H   0  0  0  0  0  0  0  0  0  0  0  0
    2.6477    0.0002   -0.7816 H   0  0  0  0  0  0  0  0  0  0  0  0
    2.1805    0.0000    0.9234 H   0  0  0  0  0  0  0  0  0  0  0  0
    0.6294   -1.3052   -1.3592 H   0  0  0  0  0  0  0  0  0  0  0  0
    1.5190   -2.1472   -0.0885 H   0  0  0  0  0  0  0  0  0  0  0  0
   -0.9281   -2.0659    0.4239 H   0  0  0  0  0  0  0  0  0  0  0  0
    0.0353   -1.2103    1.6389 H   0  0  0  0  0  0  0  0  0  0  0  0
  1  2  1  0  0  0  0
  2  3  1  0  0  0  0
  3  4  1  0  0  0  0
  4  5  1  0  0  0  0
  5  6  1  0  0  0  0
  2  7  1  0  0  0  0
  6  7  1  0  0  0  0
  1  8  1  0  0  0  0
  1  9  1  0  0  0  0
  1 10  1  0  0  0  0
  3 11  1  0  0  0  0
  3 12  1  0  0  0  0
  4 13  1  0  0  0  0
  4 14  1  0  0  0  0
  5 15  1  0  0  0  0
  5 16  1  0  0  0  0
  6 17  1  0  0  0  0
  6 18  1  0  0  0  0
  7 19  1  0  0  0  0
  7 20  1  0  0  0  0
M  END
