 xtb: 6.7.1 (edcfbbe)
          04062518003D

 24 24  0     0  0            999 V2000
   -2.5265   -0.5962   -0.2433 C   0  0  0  0  0  0  0  0  0  0  0  0
   -1.2429   -0.4795    0.5921 C   0  0  0  0  0  0  0  0  0  0  0  0
   -1.4368   -0.8472    1.6118 H   0  0  0  0  0  0  0  0  0  0  0  0
   -0.7294    0.9694    0.7524 C   0  0  0  0  0  0  0  0  0  0  0  0
   -1.5717    1.6611    0.6020 H   0  0  0  0  0  0  0  0  0  0  0  0
    0.3509    1.3174   -0.2879 C   0  0  0  0  0  0  0  0  0  0  0  0
    0.8205    2.2699   -0.0079 H   0  0  0  0  0  0  0  0  0  0  0  0
    1.4938    0.2717   -0.2925 C   0  0  0  0  0  0  0  0  0  0  0  0
    1.7461    0.0683   -1.3455 H   0  0  0  0  0  0  0  0  0  0  0  0
    1.0335   -1.0417    0.3732 C   0  0  0  0  0  0  0  0  0  0  0  0
    1.0786   -0.9255    1.4667 H   0  0  0  0  0  0  0  0  0  0  0  0
   -0.2864   -1.3212   -0.0360 O   0  0  0  0  0  0  0  0  0  0  0  0
    1.8442   -2.1158    0.0569 O   0  0  0  0  0  0  0  0  0  0  0  0
    2.5978    0.8262    0.3782 O   0  0  0  0  0  0  0  0  0  0  0  0
   -0.1968    1.5153   -1.5627 O   0  0  0  0  0  0  0  0  0  0  0  0
   -0.2462    1.0765    2.0722 O   0  0  0  0  0  0  0  0  0  0  0  0
   -2.2910   -0.3331   -1.6071 O   0  0  0  0  0  0  0  0  0  0  0  0
   -3.2578    0.1366    0.0998 H   0  0  0  0  0  0  0  0  0  0  0  0
   -2.9367   -1.6012   -0.1140 H   0  0  0  0  0  0  0  0  0  0  0  0
    1.6830   -2.3887   -0.8599 H   0  0  0  0  0  0  0  0  0  0  0  0
    3.3031    0.1650    0.4359 H   0  0  0  0  0  0  0  0  0  0  0  0
   -0.9548    0.9066   -1.7055 H   0  0  0  0  0  0  0  0  0  0  0  0
    0.0833    1.9721    2.2339 H   0  0  0  0  0  0  0  0  0  0  0  0
   -1.8094   -1.0852   -1.9821 H   0  0  0  0  0  0  0  0  0  0  0  0
  1  2  1  0  0  0  0
  2  3  1  0  0  0  0
  2  4  1  0  0  0  0
  4  5  1  0  0  0  0
  4  6  1  0  0  0  0
  6  7  1  0  0  0  0
  6  8  1  0  0  0  0
  8  9  1  0  0  0  0
  8 10  1  0  0  0  0
 10 11  1  0  0  0  0
  2 12  1  0  0  0  0
 10 12  1  0  0  0  0
 10 13  1  0  0  0  0
  8 14  1  0  0  0  0
  6 15  1  0  0  0  0
  4 16  1  0  0  0  0
  1 17  1  0  0  0  0
  1 18  1  0  0  0  0
  1 19  1  0  0  0  0
 13 20  1  0  0  0  0
 14 21  1  0  0  0  0
 15 22  1  0  0  0  0
 16 23  1  0  0  0  0
 17 24  1  0  0  0  0
M  END
