 xtb: 6.7.1 (edcfbbe)
          04062518003D

 24 24  0     0  0            999 V2000
   -2.4183   -0.6861    0.0129 C   0  0  0  0  0  0  0  0  0  0  0  0
   -0.9853   -0.2655    0.3501 C   0  0  0  0  0  0  0  0  0  0  0  0
   -0.9358    0.0234    1.4089 H   0  0  0  0  0  0  0  0  0  0  0  0
   -0.5215    0.9084   -0.5163 C   0  0  0  0  0  0  0  0  0  0  0  0
   -0.4946    0.5674   -1.5635 H   0  0  0  0  0  0  0  0  0  0  0  0
    0.9046    1.3342   -0.0993 C   0  0  0  0  0  0  0  0  0  0  0  0
    0.8107    2.1322    0.6460 H   0  0  0  0  0  0  0  0  0  0  0  0
    1.6811    0.1561    0.5335 C   0  0  0  0  0  0  0  0  0  0  0  0
    2.7424    0.2733    0.2725 H   0  0  0  0  0  0  0  0  0  0  0  0
    1.2019   -1.1568   -0.0963 C   0  0  0  0  0  0  0  0  0  0  0  0
    1.7358   -2.0009    0.3655 H   0  0  0  0  0  0  0  0  0  0  0  0
   -0.1564   -1.4089    0.1384 O   0  0  0  0  0  0  0  0  0  0  0  0
    1.4806   -1.0734   -1.4635 O   0  0  0  0  0  0  0  0  0  0  0  0
    1.5099    0.0530    1.9218 O   0  0  0  0  0  0  0  0  0  0  0  0
    1.6144    1.8947   -1.1750 O   0  0  0  0  0  0  0  0  0  0  0  0
   -1.4413    1.9605   -0.3711 O   0  0  0  0  0  0  0  0  0  0  0  0
   -2.9001   -1.6755    0.8842 O   0  0  0  0  0  0  0  0  0  0  0  0
   -2.4502   -1.0389   -1.0265 H   0  0  0  0  0  0  0  0  0  0  0  0
   -3.0740    0.1787    0.1217 H   0  0  0  0  0  0  0  0  0  0  0  0
    1.2694   -1.9149   -1.8963 H   0  0  0  0  0  0  0  0  0  0  0  0
    1.9696    0.7818    2.3641 H   0  0  0  0  0  0  0  0  0  0  0  0
    1.7854    1.2008   -1.8309 H   0  0  0  0  0  0  0  0  0  0  0  0
   -1.1546    2.7066   -0.9189 H   0  0  0  0  0  0  0  0  0  0  0  0
   -2.2648   -2.4062    0.8927 H   0  0  0  0  0  0  0  0  0  0  0  0
  1  2  1  0  0  0  0
  2  3  1  0  0  0  0
  2  4  1  0  0  0  0
  4  5  1  0  0  0  0
  4  6  1  0  0  0  0
  6  7  1  0  0  0  0
  6  8  1  0  0  0  0
  8  9  1  0  0  0  0
  8 10  1  0  0  0  0
 10 11  1  0  0  0  0
  2 12  1  0  0  0  0
 10 12  1  0  0  0  0
 10 13  1  0  0  0  0
  8 14  1  0  0  0  0
  6 15  1  0  0  0  0
  4 16  1  0  0  0  0
  1 17  1  0  0  0  0
  1 18  1  0  0  0  0
  1 19  1  0  0  0  0
 13 20  1  0  0  0  0
 14 21  1  0  0  0  0
 15 22  1  0  0  0  0
 16 23  1  0  0  0  0
 17 24  1  0  0  0  0
M  END
