 xtb: 6.7.1 (edcfbbe)
          04042516253D

 13 13  0     0  0            999 V2000
    0.4071   -1.2870    0.0000 C   0  0  0  0  0  0  0  0  0  0  0  0
    1.7585   -0.9776    0.0001 C   0  0  0  0  0  0  0  0  0  0  0  0
    2.2216    0.2626   -0.0000 N   0  0  0  0  0  0  0  0  0  0  0  0
    1.3525    1.2615    0.0000 C   0  0  0  0  0  0  0  0  0  0  0  0
   -0.0203    1.0736    0.0001 C   0  0  0  0  0  0  0  0  0  0  0  0
   -0.5085   -0.2344    0.0001 C   0  0  0  0  0  0  0  0  0  0  0  0
   -1.9536   -0.4948   -0.0001 C   0  0  0  0  0  0  0  0  0  0  0  0
   -2.8126    0.3576    0.0000 O   0  0  0  0  0  0  0  0  0  0  0  0
    0.0714   -2.3116   -0.0002 H   0  0  0  0  0  0  0  0  0  0  0  0
    2.5105   -1.7540   -0.0005 H   0  0  0  0  0  0  0  0  0  0  0  0
    1.7820    2.2533   -0.0003 H   0  0  0  0  0  0  0  0  0  0  0  0
   -0.7105    1.9023   -0.0006 H   0  0  0  0  0  0  0  0  0  0  0  0
   -2.2230   -1.5658    0.0001 H   0  0  0  0  0  0  0  0  0  0  0  0
  1  2  4  0  0  0  0
  2  3  4  0  0  0  0
  3  4  4  0  0  0  0
  4  5  4  0  0  0  0
  1  6  4  0  0  0  0
  5  6  4  0  0  0  0
  6  7  1  0  0  0  0
  7  8  2  0  0  0  0
  1  9  1  0  0  0  0
  2 10  1  0  0  0  0
  4 11  1  0  0  0  0
  5 12  1  0  0  0  0
  7 13  1  0  0  0  0
M  END
