 xtb: 6.7.1 (edcfbbe)
          04062518003D

 24 24  0     0  0            999 V2000
   -1.9985   -0.2070   -0.9778 C   0  0  0  0  0  0  0  0  0  0  0  0
   -1.3736   -0.1808    0.4354 C   0  0  0  0  0  0  0  0  0  0  0  0
   -2.1665   -0.3730    1.1712 H   0  0  0  0  0  0  0  0  0  0  0  0
   -0.7354    1.1841    0.7264 C   0  0  0  0  0  0  0  0  0  0  0  0
   -1.4518    1.9681    0.4447 H   0  0  0  0  0  0  0  0  0  0  0  0
    0.5278    1.4171   -0.1228 C   0  0  0  0  0  0  0  0  0  0  0  0
    1.2172    2.0138    0.4917 H   0  0  0  0  0  0  0  0  0  0  0  0
    1.2427    0.0969   -0.4532 C   0  0  0  0  0  0  0  0  0  0  0  0
    0.8864   -0.2786   -1.4262 H   0  0  0  0  0  0  0  0  0  0  0  0
    0.9070   -0.9542    0.6178 C   0  0  0  0  0  0  0  0  0  0  0  0
    1.2280   -0.5738    1.6017 H   0  0  0  0  0  0  0  0  0  0  0  0
   -0.4618   -1.2618    0.6189 O   0  0  0  0  0  0  0  0  0  0  0  0
    1.6116   -2.1296    0.4008 O   0  0  0  0  0  0  0  0  0  0  0  0
    2.6279    0.3309   -0.5059 O   0  0  0  0  0  0  0  0  0  0  0  0
    0.1515    2.1186   -1.2811 O   0  0  0  0  0  0  0  0  0  0  0  0
   -0.3615    1.3073    2.0779 O   0  0  0  0  0  0  0  0  0  0  0  0
   -2.2827   -1.5067   -1.4222 O   0  0  0  0  0  0  0  0  0  0  0  0
   -1.3117    0.2187   -1.7100 H   0  0  0  0  0  0  0  0  0  0  0  0
   -2.9054    0.4114   -0.9610 H   0  0  0  0  0  0  0  0  0  0  0  0
    1.1160   -2.6819   -0.2252 H   0  0  0  0  0  0  0  0  0  0  0  0
    3.0890   -0.5177   -0.4097 H   0  0  0  0  0  0  0  0  0  0  0  0
    0.9484    2.3959   -1.7562 H   0  0  0  0  0  0  0  0  0  0  0  0
   -1.1501    1.3231    2.6404 H   0  0  0  0  0  0  0  0  0  0  0  0
   -2.8552   -1.9512   -0.7806 H   0  0  0  0  0  0  0  0  0  0  0  0
  1  2  1  0  0  0  0
  2  3  1  0  0  0  0
  2  4  1  0  0  0  0
  4  5  1  0  0  0  0
  4  6  1  0  0  0  0
  6  7  1  0  0  0  0
  6  8  1  0  0  0  0
  8  9  1  0  0  0  0
  8 10  1  0  0  0  0
 10 11  1  0  0  0  0
  2 12  1  0  0  0  0
 10 12  1  0  0  0  0
 10 13  1  0  0  0  0
  8 14  1  0  0  0  0
  6 15  1  0  0  0  0
  4 16  1  0  0  0  0
  1 17  1  0  0  0  0
  1 18  1  0  0  0  0
  1 19  1  0  0  0  0
 13 20  1  0  0  0  0
 14 21  1  0  0  0  0
 15 22  1  0  0  0  0
 16 23  1  0  0  0  0
 17 24  1  0  0  0  0
M  END
