 xtb: 6.7.1 (edcfbbe)
          04062518003D

 24 24  0     0  0            999 V2000
   -2.4095   -0.7137   -0.0317 C   0  0  0  0  0  0  0  0  0  0  0  0
   -0.9898   -0.2813    0.3506 C   0  0  0  0  0  0  0  0  0  0  0  0
   -0.9782    0.0209    1.4097 H   0  0  0  0  0  0  0  0  0  0  0  0
   -0.5042    0.8926   -0.5127 C   0  0  0  0  0  0  0  0  0  0  0  0
   -0.4204    0.5745   -1.5570 H   0  0  0  0  0  0  0  0  0  0  0  0
    0.8903    1.3339   -0.0372 C   0  0  0  0  0  0  0  0  0  0  0  0
    0.7604    1.9932    0.8359 H   0  0  0  0  0  0  0  0  0  0  0  0
    1.7212    0.1290    0.4625 C   0  0  0  0  0  0  0  0  0  0  0  0
    2.7525    0.2470    0.1011 H   0  0  0  0  0  0  0  0  0  0  0  0
    1.1939   -1.1918   -0.1188 C   0  0  0  0  0  0  0  0  0  0  0  0
    1.7347   -2.0381    0.3392 H   0  0  0  0  0  0  0  0  0  0  0  0
   -0.1507   -1.4277    0.2038 O   0  0  0  0  0  0  0  0  0  0  0  0
    1.4148   -1.1659   -1.4938 O   0  0  0  0  0  0  0  0  0  0  0  0
    1.6635    0.1372    1.8661 O   0  0  0  0  0  0  0  0  0  0  0  0
    1.5056    2.0189   -1.0938 O   0  0  0  0  0  0  0  0  0  0  0  0
   -1.4209    1.9518   -0.5150 O   0  0  0  0  0  0  0  0  0  0  0  0
   -2.9549   -1.6221    0.8895 O   0  0  0  0  0  0  0  0  0  0  0  0
   -2.3865   -1.1458   -1.0399 H   0  0  0  0  0  0  0  0  0  0  0  0
   -3.0641    0.1589   -0.0364 H   0  0  0  0  0  0  0  0  0  0  0  0
    1.1389   -2.0066   -1.8907 H   0  0  0  0  0  0  0  0  0  0  0  0
    2.2312   -0.5559    2.2336 H   0  0  0  0  0  0  0  0  0  0  0  0
    2.3007    2.4738   -0.7805 H   0  0  0  0  0  0  0  0  0  0  0  0
   -1.4476    2.3650    0.3614 H   0  0  0  0  0  0  0  0  0  0  0  0
   -2.3619   -2.3848    0.9533 H   0  0  0  0  0  0  0  0  0  0  0  0
  1  2  1  0  0  0  0
  2  3  1  0  0  0  0
  2  4  1  0  0  0  0
  4  5  1  0  0  0  0
  4  6  1  0  0  0  0
  6  7  1  0  0  0  0
  6  8  1  0  0  0  0
  8  9  1  0  0  0  0
  8 10  1  0  0  0  0
 10 11  1  0  0  0  0
  2 12  1  0  0  0  0
 10 12  1  0  0  0  0
 10 13  1  0  0  0  0
  8 14  1  0  0  0  0
  6 15  1  0  0  0  0
  4 16  1  0  0  0  0
  1 17  1  0  0  0  0
  1 18  1  0  0  0  0
  1 19  1  0  0  0  0
 13 20  1  0  0  0  0
 14 21  1  0  0  0  0
 15 22  1  0  0  0  0
 16 23  1  0  0  0  0
 17 24  1  0  0  0  0
M  END
