 xtb: 6.7.1 (edcfbbe)
          04052512103D

 26 25  0     0  0            999 V2000
   -2.0958    0.6139    1.3500 C   0  0  0  0  0  0  0  0  0  0  0  0
   -1.3944    0.3367    0.0208 C   0  0  0  0  0  0  0  0  0  0  0  0
   -2.4070   -0.1650   -1.0082 C   0  0  0  0  0  0  0  0  0  0  0  0
   -0.2455   -0.6755    0.2016 C   0  0  0  0  0  0  0  0  0  0  0  0
    1.1750   -0.1484   -0.0748 C   0  0  0  0  0  0  0  0  0  0  0  0
    1.3154    0.2947   -1.5332 C   0  0  0  0  0  0  0  0  0  0  0  0
    1.5197    1.0140    0.8592 C   0  0  0  0  0  0  0  0  0  0  0  0
    2.1621   -1.2927    0.1846 C   0  0  0  0  0  0  0  0  0  0  0  0
   -2.8834    1.3533    1.2195 H   0  0  0  0  0  0  0  0  0  0  0  0
   -2.5450   -0.2978    1.7389 H   0  0  0  0  0  0  0  0  0  0  0  0
   -1.3896    0.9925    2.0849 H   0  0  0  0  0  0  0  0  0  0  0  0
   -0.9925    1.2849   -0.3467 H   0  0  0  0  0  0  0  0  0  0  0  0
   -1.9262   -0.3279   -1.9699 H   0  0  0  0  0  0  0  0  0  0  0  0
   -2.8505   -1.1025   -0.6789 H   0  0  0  0  0  0  0  0  0  0  0  0
   -3.2057    0.5615   -1.1438 H   0  0  0  0  0  0  0  0  0  0  0  0
   -0.2678   -1.0579    1.2243 H   0  0  0  0  0  0  0  0  0  0  0  0
   -0.4162   -1.5282   -0.4590 H   0  0  0  0  0  0  0  0  0  0  0  0
    2.3343    0.6203   -1.7311 H   0  0  0  0  0  0  0  0  0  0  0  0
    0.6471    1.1203   -1.7629 H   0  0  0  0  0  0  0  0  0  0  0  0
    1.0835   -0.5299   -2.2037 H   0  0  0  0  0  0  0  0  0  0  0  0
    0.8599    1.8618    0.6965 H   0  0  0  0  0  0  0  0  0  0  0  0
    2.5419    1.3438    0.6868 H   0  0  0  0  0  0  0  0  0  0  0  0
    1.4313    0.7045    1.8983 H   0  0  0  0  0  0  0  0  0  0  0  0
    1.9464   -2.1399   -0.4627 H   0  0  0  0  0  0  0  0  0  0  0  0
    2.0997   -1.6270    1.2178 H   0  0  0  0  0  0  0  0  0  0  0  0
    3.1818   -0.9668   -0.0079 H   0  0  0  0  0  0  0  0  0  0  0  0
  1  2  1  0  0  0  0
  2  3  1  0  0  0  0
  2  4  1  0  0  0  0
  4  5  1  0  0  0  0
  5  6  1  0  0  0  0
  5  7  1  0  0  0  0
  5  8  1  0  0  0  0
  1  9  1  0  0  0  0
  1 10  1  0  0  0  0
  1 11  1  0  0  0  0
  2 12  1  0  0  0  0
  3 13  1  0  0  0  0
  3 14  1  0  0  0  0
  3 15  1  0  0  0  0
  4 16  1  0  0  0  0
  4 17  1  0  0  0  0
  6 18  1  0  0  0  0
  6 19  1  0  0  0  0
  6 20  1  0  0  0  0
  7 21  1  0  0  0  0
  7 22  1  0  0  0  0
  7 23  1  0  0  0  0
  8 24  1  0  0  0  0
  8 25  1  0  0  0  0
  8 26  1  0  0  0  0
M  END
