 xtb: 6.7.1 (edcfbbe)
          04062518003D

 24 24  0     0  0            999 V2000
   -2.4916   -0.4471   -0.2502 C   0  0  0  0  0  0  0  0  0  0  0  0
   -1.0701   -0.1866    0.2548 C   0  0  0  0  0  0  0  0  0  0  0  0
   -1.0224   -0.4364    1.3253 H   0  0  0  0  0  0  0  0  0  0  0  0
   -0.6396    1.2888    0.0670 C   0  0  0  0  0  0  0  0  0  0  0  0
   -1.2985    1.7816   -0.6567 H   0  0  0  0  0  0  0  0  0  0  0  0
    0.8002    1.3310   -0.4924 C   0  0  0  0  0  0  0  0  0  0  0  0
    1.1948    2.3431   -0.3520 H   0  0  0  0  0  0  0  0  0  0  0  0
    1.6785    0.3217    0.2814 C   0  0  0  0  0  0  0  0  0  0  0  0
    2.6843    0.3106   -0.1530 H   0  0  0  0  0  0  0  0  0  0  0  0
    1.0887   -1.1064    0.1273 C   0  0  0  0  0  0  0  0  0  0  0  0
    1.0270   -1.5527    1.1338 H   0  0  0  0  0  0  0  0  0  0  0  0
   -0.1983   -1.0596   -0.4549 O   0  0  0  0  0  0  0  0  0  0  0  0
    1.8786   -1.9489   -0.6241 O   0  0  0  0  0  0  0  0  0  0  0  0
    1.7123    0.6395    1.6557 O   0  0  0  0  0  0  0  0  0  0  0  0
    0.8416    1.0881   -1.8749 O   0  0  0  0  0  0  0  0  0  0  0  0
   -0.7648    2.0240    1.2531 O   0  0  0  0  0  0  0  0  0  0  0  0
   -2.9366   -1.7432    0.0535 O   0  0  0  0  0  0  0  0  0  0  0  0
   -2.5263   -0.2697   -1.3325 H   0  0  0  0  0  0  0  0  0  0  0  0
   -3.1745    0.2412    0.2503 H   0  0  0  0  0  0  0  0  0  0  0  0
    1.8741   -1.6740   -1.5547 H   0  0  0  0  0  0  0  0  0  0  0  0
    2.4497    1.2369    1.8423 H   0  0  0  0  0  0  0  0  0  0  0  0
    0.3317    0.2831   -2.0589 H   0  0  0  0  0  0  0  0  0  0  0  0
   -0.1270    1.6757    1.9003 H   0  0  0  0  0  0  0  0  0  0  0  0
   -2.3186   -2.3792   -0.3361 H   0  0  0  0  0  0  0  0  0  0  0  0
  1  2  1  0  0  0  0
  2  3  1  0  0  0  0
  2  4  1  0  0  0  0
  4  5  1  0  0  0  0
  4  6  1  0  0  0  0
  6  7  1  0  0  0  0
  6  8  1  0  0  0  0
  8  9  1  0  0  0  0
  8 10  1  0  0  0  0
 10 11  1  0  0  0  0
  2 12  1  0  0  0  0
 10 12  1  0  0  0  0
 10 13  1  0  0  0  0
  8 14  1  0  0  0  0
  6 15  1  0  0  0  0
  4 16  1  0  0  0  0
  1 17  1  0  0  0  0
  1 18  1  0  0  0  0
  1 19  1  0  0  0  0
 13 20  1  0  0  0  0
 14 21  1  0  0  0  0
 15 22  1  0  0  0  0
 16 23  1  0  0  0  0
 17 24  1  0  0  0  0
M  END
