 xtb: 6.7.1 (edcfbbe)
          04062518003D

 24 24  0     0  0            999 V2000
   -2.5309   -0.6405   -0.1454 C   0  0  0  0  0  0  0  0  0  0  0  0
   -1.1938   -0.4754    0.5934 C   0  0  0  0  0  0  0  0  0  0  0  0
   -1.2946   -0.8504    1.6243 H   0  0  0  0  0  0  0  0  0  0  0  0
   -0.7228    0.9941    0.7031 C   0  0  0  0  0  0  0  0  0  0  0  0
   -1.5824    1.6530    0.5336 H   0  0  0  0  0  0  0  0  0  0  0  0
    0.3509    1.3047   -0.3549 C   0  0  0  0  0  0  0  0  0  0  0  0
    0.7563    2.3102   -0.1729 H   0  0  0  0  0  0  0  0  0  0  0  0
    1.5479    0.3249   -0.2017 C   0  0  0  0  0  0  0  0  0  0  0  0
    2.0077    0.2089   -1.1890 H   0  0  0  0  0  0  0  0  0  0  0  0
    1.0681   -1.0532    0.3093 C   0  0  0  0  0  0  0  0  0  0  0  0
    1.1088   -1.0628    1.4110 H   0  0  0  0  0  0  0  0  0  0  0  0
   -0.2611   -1.2781   -0.1121 O   0  0  0  0  0  0  0  0  0  0  0  0
    1.8520   -2.1083   -0.1064 O   0  0  0  0  0  0  0  0  0  0  0  0
    2.5507    0.8585    0.6232 O   0  0  0  0  0  0  0  0  0  0  0  0
   -0.1660    1.3226   -1.6577 O   0  0  0  0  0  0  0  0  0  0  0  0
   -0.1968    1.1788    2.0026 O   0  0  0  0  0  0  0  0  0  0  0  0
   -2.3953   -0.3857   -1.5243 O   0  0  0  0  0  0  0  0  0  0  0  0
   -3.2590    0.0744    0.2404 H   0  0  0  0  0  0  0  0  0  0  0  0
   -2.9006   -1.6553    0.0227 H   0  0  0  0  0  0  0  0  0  0  0  0
    1.8005   -2.2008   -1.0705 H   0  0  0  0  0  0  0  0  0  0  0  0
    2.2068    0.9384    1.5265 H   0  0  0  0  0  0  0  0  0  0  0  0
   -0.9545    0.7420   -1.7216 H   0  0  0  0  0  0  0  0  0  0  0  0
   -0.2564    2.1114    2.2530 H   0  0  0  0  0  0  0  0  0  0  0  0
   -1.9497   -1.1430   -1.9317 H   0  0  0  0  0  0  0  0  0  0  0  0
  1  2  1  0  0  0  0
  2  3  1  0  0  0  0
  2  4  1  0  0  0  0
  4  5  1  0  0  0  0
  4  6  1  0  0  0  0
  6  7  1  0  0  0  0
  6  8  1  0  0  0  0
  8  9  1  0  0  0  0
  8 10  1  0  0  0  0
 10 11  1  0  0  0  0
  2 12  1  0  0  0  0
 10 12  1  0  0  0  0
 10 13  1  0  0  0  0
  8 14  1  0  0  0  0
  6 15  1  0  0  0  0
  4 16  1  0  0  0  0
  1 17  1  0  0  0  0
  1 18  1  0  0  0  0
  1 19  1  0  0  0  0
 13 20  1  0  0  0  0
 14 21  1  0  0  0  0
 15 22  1  0  0  0  0
 16 23  1  0  0  0  0
 17 24  1  0  0  0  0
M  END
