 xtb: 6.7.1 (edcfbbe)
          04042521543D

 16 15  0     0  0            999 V2000
    1.4018   -0.2687   -1.2247 C   0  0  0  0  0  0  0  0  0  0  0  0
    0.7236   -0.1410    0.1098 C   0  0  0  0  0  0  0  0  0  0  0  0
    1.4403   -0.2851    1.2240 C   0  0  0  0  0  0  0  0  0  0  0  0
   -0.7236    0.1409    0.1098 C   0  0  0  0  0  0  0  0  0  0  0  0
   -1.4407    0.2828    1.2240 C   0  0  0  0  0  0  0  0  0  0  0  0
   -1.4014    0.2710   -1.2247 C   0  0  0  0  0  0  0  0  0  0  0  0
    1.2962    0.6481   -1.8010 H   0  0  0  0  0  0  0  0  0  0  0  0
    0.9669   -1.0822   -1.8020 H   0  0  0  0  0  0  0  0  0  0  0  0
    2.4611   -0.4706   -1.0906 H   0  0  0  0  0  0  0  0  0  0  0  0
    1.0191   -0.2075    2.2098 H   0  0  0  0  0  0  0  0  0  0  0  0
    2.4965   -0.4907    1.1840 H   0  0  0  0  0  0  0  0  0  0  0  0
   -2.4969    0.4882    1.1841 H   0  0  0  0  0  0  0  0  0  0  0  0
   -1.0199    0.2030    2.2098 H   0  0  0  0  0  0  0  0  0  0  0  0
   -2.4605    0.4735   -1.0907 H   0  0  0  0  0  0  0  0  0  0  0  0
   -0.9657    1.0847   -1.8009 H   0  0  0  0  0  0  0  0  0  0  0  0
   -1.2963   -0.6453   -1.8021 H   0  0  0  0  0  0  0  0  0  0  0  0
  1  2  1  0  0  0  0
  2  3  2  0  0  0  0
  2  4  1  0  0  0  0
  4  5  2  0  0  0  0
  4  6  1  0  0  0  0
  1  7  1  0  0  0  0
  1  8  1  0  0  0  0
  1  9  1  0  0  0  0
  3 10  1  0  0  0  0
  3 11  1  0  0  0  0
  5 12  1  0  0  0  0
  5 13  1  0  0  0  0
  6 14  1  0  0  0  0
  6 15  1  0  0  0  0
  6 16  1  0  0  0  0
M  END
