 xtb: 6.7.1 (edcfbbe)
          04042519183D

 15 15  0     0  0            999 V2000
    2.0586   -1.0444   -0.0001 C   0  0  0  0  0  0  0  0  0  0  0  0
    2.3402    0.3173   -0.0002 C   0  0  0  0  0  0  0  0  0  0  0  0
    1.3184    1.2442   -0.0002 C   0  0  0  0  0  0  0  0  0  0  0  0
   -0.0162    0.8370    0.0002 C   0  0  0  0  0  0  0  0  0  0  0  0
   -0.3099   -0.5444    0.0001 C   0  0  0  0  0  0  0  0  0  0  0  0
    0.7478   -1.4628    0.0002 C   0  0  0  0  0  0  0  0  0  0  0  0
   -1.6722   -1.0440   -0.0002 C   0  0  0  0  0  0  0  0  0  0  0  0
   -2.6987   -0.3930   -0.0003 O   0  0  0  0  0  0  0  0  0  0  0  0
   -1.0235    1.7200    0.0004 O   0  0  0  0  0  0  0  0  0  0  0  0
    2.8606   -1.7645   -0.0002 H   0  0  0  0  0  0  0  0  0  0  0  0
    3.3645    0.6555    0.0005 H   0  0  0  0  0  0  0  0  0  0  0  0
    1.5472    2.2996   -0.0001 H   0  0  0  0  0  0  0  0  0  0  0  0
    0.5102   -2.5159    0.0008 H   0  0  0  0  0  0  0  0  0  0  0  0
   -1.7291   -2.1508   -0.0001 H   0  0  0  0  0  0  0  0  0  0  0  0
   -0.6936    2.6343   -0.0003 H   0  0  0  0  0  0  0  0  0  0  0  0
  1  2  4  0  0  0  0
  2  3  4  0  0  0  0
  3  4  4  0  0  0  0
  4  5  4  0  0  0  0
  1  6  4  0  0  0  0
  5  6  4  0  0  0  0
  5  7  1  0  0  0  0
  7  8  2  0  0  0  0
  4  9  1  0  0  0  0
  1 10  1  0  0  0  0
  2 11  1  0  0  0  0
  3 12  1  0  0  0  0
  6 13  1  0  0  0  0
  7 14  1  0  0  0  0
  9 15  1  0  0  0  0
M  END
