 xtb: 6.7.1 (edcfbbe)
          04062518003D

 24 24  0     0  0            999 V2000
   -2.4204   -1.1011   -0.3198 C   0  0  0  0  0  0  0  0  0  0  0  0
   -1.0734   -0.6040    0.2275 C   0  0  0  0  0  0  0  0  0  0  0  0
   -1.1190   -0.5944    1.3295 H   0  0  0  0  0  0  0  0  0  0  0  0
   -0.7503    0.8207   -0.2740 C   0  0  0  0  0  0  0  0  0  0  0  0
   -0.7527    0.8192   -1.3709 H   0  0  0  0  0  0  0  0  0  0  0  0
    0.6468    1.2257    0.2064 C   0  0  0  0  0  0  0  0  0  0  0  0
    0.6495    1.2843    1.3094 H   0  0  0  0  0  0  0  0  0  0  0  0
    1.6684    0.1584   -0.2030 C   0  0  0  0  0  0  0  0  0  0  0  0
    1.7358    0.1228   -1.3003 H   0  0  0  0  0  0  0  0  0  0  0  0
    1.2026   -1.2238    0.2824 C   0  0  0  0  0  0  0  0  0  0  0  0
    1.1887   -1.2239    1.3942 H   0  0  0  0  0  0  0  0  0  0  0  0
   -0.0870   -1.5220   -0.1987 O   0  0  0  0  0  0  0  0  0  0  0  0
    2.0836   -2.1678   -0.2051 O   0  0  0  0  0  0  0  0  0  0  0  0
    2.9022    0.5135    0.3656 O   0  0  0  0  0  0  0  0  0  0  0  0
    0.9686    2.4783   -0.3390 O   0  0  0  0  0  0  0  0  0  0  0  0
   -1.7447    1.7331    0.1173 O   0  0  0  0  0  0  0  0  0  0  0  0
   -3.5134   -0.4514    0.2678 O   0  0  0  0  0  0  0  0  0  0  0  0
   -2.5219   -2.1628   -0.0850 H   0  0  0  0  0  0  0  0  0  0  0  0
   -2.4235   -0.9815   -1.4106 H   0  0  0  0  0  0  0  0  0  0  0  0
    1.6962   -3.0529   -0.1208 H   0  0  0  0  0  0  0  0  0  0  0  0
    3.5588   -0.1635    0.1453 H   0  0  0  0  0  0  0  0  0  0  0  0
    1.8977    2.6697   -0.1398 H   0  0  0  0  0  0  0  0  0  0  0  0
   -1.5126    2.1397    0.9641 H   0  0  0  0  0  0  0  0  0  0  0  0
   -3.4125    0.5051    0.1206 H   0  0  0  0  0  0  0  0  0  0  0  0
  1  2  1  0  0  0  0
  2  3  1  0  0  0  0
  2  4  1  0  0  0  0
  4  5  1  0  0  0  0
  4  6  1  0  0  0  0
  6  7  1  0  0  0  0
  6  8  1  0  0  0  0
  8  9  1  0  0  0  0
  8 10  1  0  0  0  0
 10 11  1  0  0  0  0
  2 12  1  0  0  0  0
 10 12  1  0  0  0  0
 10 13  1  0  0  0  0
  8 14  1  0  0  0  0
  6 15  1  0  0  0  0
  4 16  1  0  0  0  0
  1 17  1  0  0  0  0
  1 18  1  0  0  0  0
  1 19  1  0  0  0  0
 13 20  1  0  0  0  0
 14 21  1  0  0  0  0
 15 22  1  0  0  0  0
 16 23  1  0  0  0  0
 17 24  1  0  0  0  0
M  END
