 xtb: 6.7.1 (edcfbbe)
          04062518003D

 24 24  0     0  0            999 V2000
   -2.2342   -1.1760    0.0174 C   0  0  0  0  0  0  0  0  0  0  0  0
   -0.8720   -0.5725    0.3751 C   0  0  0  0  0  0  0  0  0  0  0  0
   -0.8242   -0.4017    1.4608 H   0  0  0  0  0  0  0  0  0  0  0  0
   -0.6467    0.7741   -0.3242 C   0  0  0  0  0  0  0  0  0  0  0  0
   -0.8219    0.6458   -1.4062 H   0  0  0  0  0  0  0  0  0  0  0  0
    0.8045    1.2671   -0.1513 C   0  0  0  0  0  0  0  0  0  0  0  0
    0.7608    2.1464    0.5018 H   0  0  0  0  0  0  0  0  0  0  0  0
    1.7027    0.2121    0.5269 C   0  0  0  0  0  0  0  0  0  0  0  0
    2.7508    0.4650    0.3051 H   0  0  0  0  0  0  0  0  0  0  0  0
    1.4322   -1.1601   -0.1142 C   0  0  0  0  0  0  0  0  0  0  0  0
    2.0099   -1.9512    0.3853 H   0  0  0  0  0  0  0  0  0  0  0  0
    0.0803   -1.5555   -0.0088 O   0  0  0  0  0  0  0  0  0  0  0  0
    1.8613   -1.1809   -1.4377 O   0  0  0  0  0  0  0  0  0  0  0  0
    1.4644    0.2368    1.9088 O   0  0  0  0  0  0  0  0  0  0  0  0
    1.3023    1.5870   -1.4314 O   0  0  0  0  0  0  0  0  0  0  0  0
   -1.4941    1.7710    0.1871 O   0  0  0  0  0  0  0  0  0  0  0  0
   -3.2578   -0.3423    0.5095 O   0  0  0  0  0  0  0  0  0  0  0  0
   -2.2789   -2.1747    0.4649 H   0  0  0  0  0  0  0  0  0  0  0  0
   -2.2953   -1.2767   -1.0736 H   0  0  0  0  0  0  0  0  0  0  0  0
    1.5512   -0.3815   -1.9028 H   0  0  0  0  0  0  0  0  0  0  0  0
    2.1021   -0.3301    2.3669 H   0  0  0  0  0  0  0  0  0  0  0  0
    2.0113    2.2420   -1.3660 H   0  0  0  0  0  0  0  0  0  0  0  0
   -2.3786    1.3864    0.3221 H   0  0  0  0  0  0  0  0  0  0  0  0
   -4.1175   -0.7533    0.3399 H   0  0  0  0  0  0  0  0  0  0  0  0
  1  2  1  0  0  0  0
  2  3  1  0  0  0  0
  2  4  1  0  0  0  0
  4  5  1  0  0  0  0
  4  6  1  0  0  0  0
  6  7  1  0  0  0  0
  6  8  1  0  0  0  0
  8  9  1  0  0  0  0
  8 10  1  0  0  0  0
 10 11  1  0  0  0  0
  2 12  1  0  0  0  0
 10 12  1  0  0  0  0
 10 13  1  0  0  0  0
  8 14  1  0  0  0  0
  6 15  1  0  0  0  0
  4 16  1  0  0  0  0
  1 17  1  0  0  0  0
  1 18  1  0  0  0  0
  1 19  1  0  0  0  0
 13 20  1  0  0  0  0
 14 21  1  0  0  0  0
 15 22  1  0  0  0  0
 16 23  1  0  0  0  0
 17 24  1  0  0  0  0
M  END
