 xtb: 6.7.1 (edcfbbe)
          04062518003D

 24 24  0     0  0            999 V2000
   -1.6905   -1.3708   -0.5481 C   0  0  0  0  0  0  0  0  0  0  0  0
   -1.1348   -0.4878    0.5877 C   0  0  0  0  0  0  0  0  0  0  0  0
   -1.8673   -0.4366    1.4017 H   0  0  0  0  0  0  0  0  0  0  0  0
   -0.8652    0.9603    0.1001 C   0  0  0  0  0  0  0  0  0  0  0  0
   -1.1652    1.0387   -0.9535 H   0  0  0  0  0  0  0  0  0  0  0  0
    0.6349    1.2755    0.2098 C   0  0  0  0  0  0  0  0  0  0  0  0
    0.8769    1.3861    1.2737 H   0  0  0  0  0  0  0  0  0  0  0  0
    1.4393    0.1097   -0.3853 C   0  0  0  0  0  0  0  0  0  0  0  0
    1.1128   -0.0891   -1.4132 H   0  0  0  0  0  0  0  0  0  0  0  0
    1.1762   -1.1623    0.4496 C   0  0  0  0  0  0  0  0  0  0  0  0
    1.9728   -1.2663    1.2012 H   0  0  0  0  0  0  0  0  0  0  0  0
   -0.0029   -1.0769    1.2150 O   0  0  0  0  0  0  0  0  0  0  0  0
    1.1657   -2.2535   -0.4158 O   0  0  0  0  0  0  0  0  0  0  0  0
    2.8079    0.3941   -0.4808 O   0  0  0  0  0  0  0  0  0  0  0  0
    0.9786    2.5015   -0.3719 O   0  0  0  0  0  0  0  0  0  0  0  0
   -1.5571    1.9099    0.8779 O   0  0  0  0  0  0  0  0  0  0  0  0
   -2.8820   -0.8471   -1.0794 O   0  0  0  0  0  0  0  0  0  0  0  0
   -1.8309   -2.3878   -0.1685 H   0  0  0  0  0  0  0  0  0  0  0  0
   -0.9736   -1.4092   -1.3713 H   0  0  0  0  0  0  0  0  0  0  0  0
    1.2012   -3.0839    0.0830 H   0  0  0  0  0  0  0  0  0  0  0  0
    3.1015    0.8790    0.3047 H   0  0  0  0  0  0  0  0  0  0  0  0
    0.7974    2.4806   -1.3231 H   0  0  0  0  0  0  0  0  0  0  0  0
   -2.4649    2.0027    0.5583 H   0  0  0  0  0  0  0  0  0  0  0  0
   -3.6160   -1.0354   -0.4780 H   0  0  0  0  0  0  0  0  0  0  0  0
  1  2  1  0  0  0  0
  2  3  1  0  0  0  0
  2  4  1  0  0  0  0
  4  5  1  0  0  0  0
  4  6  1  0  0  0  0
  6  7  1  0  0  0  0
  6  8  1  0  0  0  0
  8  9  1  0  0  0  0
  8 10  1  0  0  0  0
 10 11  1  0  0  0  0
  2 12  1  0  0  0  0
 10 12  1  0  0  0  0
 10 13  1  0  0  0  0
  8 14  1  0  0  0  0
  6 15  1  0  0  0  0
  4 16  1  0  0  0  0
  1 17  1  0  0  0  0
  1 18  1  0  0  0  0
  1 19  1  0  0  0  0
 13 20  1  0  0  0  0
 14 21  1  0  0  0  0
 15 22  1  0  0  0  0
 16 23  1  0  0  0  0
 17 24  1  0  0  0  0
M  END
