 xtb: 6.7.1 (edcfbbe)
          04052516073D

 27 27  0     0  0            999 V2000
   -2.5069    0.6638   -1.2601 C   0  0  0  0  0  0  0  0  0  0  0  0
   -2.0546    0.4115    0.1861 C   0  0  0  0  0  0  0  0  0  0  0  0
   -2.9524    0.3336    0.8076 H   0  0  0  0  0  0  0  0  0  0  0  0
   -1.1411    1.5394    0.7070 C   0  0  0  0  0  0  0  0  0  0  0  0
    0.2853    1.0630    0.9659 C   0  0  0  0  0  0  0  0  0  0  0  0
    0.7959    0.2861   -0.2509 C   0  0  0  0  0  0  0  0  0  0  0  0
    0.5942    0.8910   -1.1392 H   0  0  0  0  0  0  0  0  0  0  0  0
    0.0105   -1.0304   -0.3400 C   0  0  0  0  0  0  0  0  0  0  0  0
   -1.3852   -0.9421    0.2118 C   0  0  0  0  0  0  0  0  0  0  0  0
   -1.9707   -1.9308    0.6168 O   0  0  0  0  0  0  0  0  0  0  0  0
    2.2866    0.0310   -0.1847 C   0  0  0  0  0  0  0  0  0  0  0  0
    2.8503   -0.6088    0.8281 C   0  0  0  0  0  0  0  0  0  0  0  0
    3.0811    0.5577   -1.3394 C   0  0  0  0  0  0  0  0  0  0  0  0
   -3.1315   -0.1567   -1.6077 H   0  0  0  0  0  0  0  0  0  0  0  0
   -3.0875    1.5813   -1.3037 H   0  0  0  0  0  0  0  0  0  0  0  0
   -1.6520    0.7564   -1.9232 H   0  0  0  0  0  0  0  0  0  0  0  0
   -1.1178    2.3460   -0.0271 H   0  0  0  0  0  0  0  0  0  0  0  0
   -1.5557    1.9457    1.6299 H   0  0  0  0  0  0  0  0  0  0  0  0
    0.9291    1.9214    1.1615 H   0  0  0  0  0  0  0  0  0  0  0  0
    0.3101    0.4163    1.8451 H   0  0  0  0  0  0  0  0  0  0  0  0
   -0.0749   -1.3624   -1.3778 H   0  0  0  0  0  0  0  0  0  0  0  0
    0.5281   -1.8275    0.1984 H   0  0  0  0  0  0  0  0  0  0  0  0
    3.9119   -0.7826    0.8679 H   0  0  0  0  0  0  0  0  0  0  0  0
    2.2812   -0.9862    1.6608 H   0  0  0  0  0  0  0  0  0  0  0  0
    2.9589    1.6372   -1.4155 H   0  0  0  0  0  0  0  0  0  0  0  0
    4.1373    0.3321   -1.2237 H   0  0  0  0  0  0  0  0  0  0  0  0
    2.7270    0.1153   -2.2695 H   0  0  0  0  0  0  0  0  0  0  0  0
  1  2  1  0  0  0  0
  2  3  1  0  0  0  0
  2  4  1  0  0  0  0
  4  5  1  0  0  0  0
  5  6  1  0  0  0  0
  6  7  1  0  0  0  0
  6  8  1  0  0  0  0
  2  9  1  0  0  0  0
  8  9  1  0  0  0  0
  9 10  2  0  0  0  0
  6 11  1  0  0  0  0
 11 12  2  0  0  0  0
 11 13  1  0  0  0  0
  1 14  1  0  0  0  0
  1 15  1  0  0  0  0
  1 16  1  0  0  0  0
  4 17  1  0  0  0  0
  4 18  1  0  0  0  0
  5 19  1  0  0  0  0
  5 20  1  0  0  0  0
  8 21  1  0  0  0  0
  8 22  1  0  0  0  0
 12 23  1  0  0  0  0
 12 24  1  0  0  0  0
 13 25  1  0  0  0  0
 13 26  1  0  0  0  0
 13 27  1  0  0  0  0
M  END
