 xtb: 6.7.1 (edcfbbe)
          04062518003D

 24 24  0     0  0            999 V2000
   -2.0435   -1.1976   -0.3018 C   0  0  0  0  0  0  0  0  0  0  0  0
   -1.2792   -0.3472    0.7325 C   0  0  0  0  0  0  0  0  0  0  0  0
   -1.9351   -0.2496    1.6040 H   0  0  0  0  0  0  0  0  0  0  0  0
   -0.9405    1.0788    0.2218 C   0  0  0  0  0  0  0  0  0  0  0  0
   -1.2613    1.2064   -0.8166 H   0  0  0  0  0  0  0  0  0  0  0  0
    0.5792    1.2902    0.2631 C   0  0  0  0  0  0  0  0  0  0  0  0
    0.9041    1.3591    1.3165 H   0  0  0  0  0  0  0  0  0  0  0  0
    1.2695    0.0815   -0.3930 C   0  0  0  0  0  0  0  0  0  0  0  0
    0.8749   -0.0438   -1.4073 H   0  0  0  0  0  0  0  0  0  0  0  0
    0.9764   -1.1918    0.4280 C   0  0  0  0  0  0  0  0  0  0  0  0
    1.8010   -1.3861    1.1268 H   0  0  0  0  0  0  0  0  0  0  0  0
   -0.1400   -1.0129    1.2718 O   0  0  0  0  0  0  0  0  0  0  0  0
    0.8935   -2.3328   -0.3552 O   0  0  0  0  0  0  0  0  0  0  0  0
    2.6412    0.3278   -0.5673 O   0  0  0  0  0  0  0  0  0  0  0  0
    0.9062    2.4777   -0.4118 O   0  0  0  0  0  0  0  0  0  0  0  0
   -1.6518    2.0612    0.9265 O   0  0  0  0  0  0  0  0  0  0  0  0
   -1.3993   -1.2975   -1.5567 O   0  0  0  0  0  0  0  0  0  0  0  0
   -3.0470   -0.7818   -0.4081 H   0  0  0  0  0  0  0  0  0  0  0  0
   -2.1184   -2.2144    0.0942 H   0  0  0  0  0  0  0  0  0  0  0  0
    0.1791   -2.2282   -1.0137 H   0  0  0  0  0  0  0  0  0  0  0  0
    3.1065    0.2705    0.2802 H   0  0  0  0  0  0  0  0  0  0  0  0
    1.8075    2.3857   -0.7638 H   0  0  0  0  0  0  0  0  0  0  0  0
   -1.2844    2.1665    1.8158 H   0  0  0  0  0  0  0  0  0  0  0  0
   -1.7301   -0.6214   -2.1614 H   0  0  0  0  0  0  0  0  0  0  0  0
  1  2  1  0  0  0  0
  2  3  1  0  0  0  0
  2  4  1  0  0  0  0
  4  5  1  0  0  0  0
  4  6  1  0  0  0  0
  6  7  1  0  0  0  0
  6  8  1  0  0  0  0
  8  9  1  0  0  0  0
  8 10  1  0  0  0  0
 10 11  1  0  0  0  0
  2 12  1  0  0  0  0
 10 12  1  0  0  0  0
 10 13  1  0  0  0  0
  8 14  1  0  0  0  0
  6 15  1  0  0  0  0
  4 16  1  0  0  0  0
  1 17  1  0  0  0  0
  1 18  1  0  0  0  0
  1 19  1  0  0  0  0
 13 20  1  0  0  0  0
 14 21  1  0  0  0  0
 15 22  1  0  0  0  0
 16 23  1  0  0  0  0
 17 24  1  0  0  0  0
M  END
