 xtb: 6.7.1 (edcfbbe)
          04062518003D

 24 24  0     0  0            999 V2000
   -2.5408   -0.9149    0.2746 C   0  0  0  0  0  0  0  0  0  0  0  0
   -1.1183   -0.4717    0.6215 C   0  0  0  0  0  0  0  0  0  0  0  0
   -1.0238   -0.4081    1.7170 H   0  0  0  0  0  0  0  0  0  0  0  0
   -0.8237    0.9180    0.0386 C   0  0  0  0  0  0  0  0  0  0  0  0
   -1.0524    0.9039   -1.0368 H   0  0  0  0  0  0  0  0  0  0  0  0
    0.6584    1.2714    0.2145 C   0  0  0  0  0  0  0  0  0  0  0  0
    0.8725    1.3884    1.2895 H   0  0  0  0  0  0  0  0  0  0  0  0
    1.5325    0.1413   -0.3304 C   0  0  0  0  0  0  0  0  0  0  0  0
    1.3616    0.0490   -1.4145 H   0  0  0  0  0  0  0  0  0  0  0  0
    1.1225   -1.1793    0.3509 C   0  0  0  0  0  0  0  0  0  0  0  0
    1.3282   -1.0942    1.4335 H   0  0  0  0  0  0  0  0  0  0  0  0
   -0.2333   -1.4536    0.1213 O   0  0  0  0  0  0  0  0  0  0  0  0
    1.8686   -2.2460   -0.1209 O   0  0  0  0  0  0  0  0  0  0  0  0
    2.8776    0.4536   -0.0660 O   0  0  0  0  0  0  0  0  0  0  0  0
    0.8888    2.4865   -0.4559 O   0  0  0  0  0  0  0  0  0  0  0  0
   -1.6443    1.8388    0.7103 O   0  0  0  0  0  0  0  0  0  0  0  0
   -2.7048   -0.8989   -1.1237 O   0  0  0  0  0  0  0  0  0  0  0  0
   -3.2306   -0.2157    0.7608 H   0  0  0  0  0  0  0  0  0  0  0  0
   -2.6857   -1.9261    0.6717 H   0  0  0  0  0  0  0  0  0  0  0  0
    1.4210   -2.6199   -0.8968 H   0  0  0  0  0  0  0  0  0  0  0  0
    3.4210   -0.3327   -0.2284 H   0  0  0  0  0  0  0  0  0  0  0  0
    1.8397    2.6706   -0.4403 H   0  0  0  0  0  0  0  0  0  0  0  0
   -1.4281    2.7260    0.3848 H   0  0  0  0  0  0  0  0  0  0  0  0
   -3.5995   -1.1986   -1.3380 H   0  0  0  0  0  0  0  0  0  0  0  0
  1  2  1  0  0  0  0
  2  3  1  0  0  0  0
  2  4  1  0  0  0  0
  4  5  1  0  0  0  0
  4  6  1  0  0  0  0
  6  7  1  0  0  0  0
  6  8  1  0  0  0  0
  8  9  1  0  0  0  0
  8 10  1  0  0  0  0
 10 11  1  0  0  0  0
  2 12  1  0  0  0  0
 10 12  1  0  0  0  0
 10 13  1  0  0  0  0
  8 14  1  0  0  0  0
  6 15  1  0  0  0  0
  4 16  1  0  0  0  0
  1 17  1  0  0  0  0
  1 18  1  0  0  0  0
  1 19  1  0  0  0  0
 13 20  1  0  0  0  0
 14 21  1  0  0  0  0
 15 22  1  0  0  0  0
 16 23  1  0  0  0  0
 17 24  1  0  0  0  0
M  END
