 xtb: 6.7.1 (edcfbbe)
          04032521533D

  6  5  0     0  0            999 V2000
   -0.4879    0.4463   -0.0007 C   0  0  0  0  0  0  0  0  0  0  0  0
    0.4879   -0.4463   -0.0005 C   0  0  0  0  0  0  0  0  0  0  0  0
    2.1375    0.0413    0.0002 Cl  0  0  0  0  0  0  0  0  0  0  0  0
   -2.1375   -0.0413    0.0002 Cl  0  0  0  0  0  0  0  0  0  0  0  0
   -0.3379    1.5133    0.0003 H   0  0  0  0  0  0  0  0  0  0  0  0
    0.3378   -1.5133   -0.0004 H   0  0  0  0  0  0  0  0  0  0  0  0
  1  2  2  0  0  0  0
  2  3  1  0  0  0  0
  1  4  1  0  0  0  0
  1  5  1  0  0  0  0
  2  6  1  0  0  0  0
M  END
