 xtb: 6.7.1 (edcfbbe)
          04042521073D

 15 14  0     0  0            999 V2000
   -2.3812    0.0788   -0.0099 C   0  0  0  0  0  0  0  0  0  0  0  0
   -0.9094    0.4685    0.0538 C   0  0  0  0  0  0  0  0  0  0  0  0
    0.0032   -0.7101   -0.1113 C   0  0  0  0  0  0  0  0  0  0  0  0
    1.3258   -0.6338   -0.0800 C   0  0  0  0  0  0  0  0  0  0  0  0
    2.0795    0.6429    0.1249 C   0  0  0  0  0  0  0  0  0  0  0  0
   -2.6124   -0.3802   -0.9687 H   0  0  0  0  0  0  0  0  0  0  0  0
   -3.0138    0.9548    0.1127 H   0  0  0  0  0  0  0  0  0  0  0  0
   -2.6213   -0.6313    0.7784 H   0  0  0  0  0  0  0  0  0  0  0  0
   -0.6907    1.2043   -0.7266 H   0  0  0  0  0  0  0  0  0  0  0  0
   -0.6997    0.9546    1.0118 H   0  0  0  0  0  0  0  0  0  0  0  0
   -0.4770   -1.6666   -0.2641 H   0  0  0  0  0  0  0  0  0  0  0  0
    1.9164   -1.5302   -0.2081 H   0  0  0  0  0  0  0  0  0  0  0  0
    1.7967    1.1046    1.0708 H   0  0  0  0  0  0  0  0  0  0  0  0
    1.8446    1.3547   -0.6664 H   0  0  0  0  0  0  0  0  0  0  0  0
    3.1512    0.4682    0.1291 H   0  0  0  0  0  0  0  0  0  0  0  0
  1  2  1  0  0  0  0
  2  3  1  0  0  0  0
  3  4  2  0  0  0  0
  4  5  1  0  0  0  0
  1  6  1  0  0  0  0
  1  7  1  0  0  0  0
  1  8  1  0  0  0  0
  2  9  1  0  0  0  0
  2 10  1  0  0  0  0
  3 11  1  0  0  0  0
  4 12  1  0  0  0  0
  5 13  1  0  0  0  0
  5 14  1  0  0  0  0
  5 15  1  0  0  0  0
M  END
