 xtb: 6.7.1 (edcfbbe)
          04062518003D

 24 24  0     0  0            999 V2000
   -2.5429   -0.9206    0.2664 C   0  0  0  0  0  0  0  0  0  0  0  0
   -1.1221   -0.4708    0.6112 C   0  0  0  0  0  0  0  0  0  0  0  0
   -1.0307   -0.4007    1.7075 H   0  0  0  0  0  0  0  0  0  0  0  0
   -0.8278    0.9145    0.0206 C   0  0  0  0  0  0  0  0  0  0  0  0
   -1.0386    0.8884   -1.0577 H   0  0  0  0  0  0  0  0  0  0  0  0
    0.6505    1.2672    0.2223 C   0  0  0  0  0  0  0  0  0  0  0  0
    0.8319    1.3947    1.3046 H   0  0  0  0  0  0  0  0  0  0  0  0
    1.5467    0.1376   -0.3047 C   0  0  0  0  0  0  0  0  0  0  0  0
    1.4042    0.0326   -1.3856 H   0  0  0  0  0  0  0  0  0  0  0  0
    1.1258   -1.1811    0.3631 C   0  0  0  0  0  0  0  0  0  0  0  0
    1.2867   -1.0904    1.4639 H   0  0  0  0  0  0  0  0  0  0  0  0
   -0.2304   -1.4523    0.1223 O   0  0  0  0  0  0  0  0  0  0  0  0
    1.8706   -2.2262   -0.1474 O   0  0  0  0  0  0  0  0  0  0  0  0
    2.9023    0.4492   -0.1203 O   0  0  0  0  0  0  0  0  0  0  0  0
    0.9097    2.4801   -0.4424 O   0  0  0  0  0  0  0  0  0  0  0  0
   -1.6617    1.8379    0.6732 O   0  0  0  0  0  0  0  0  0  0  0  0
   -2.7139   -0.8968   -1.1304 O   0  0  0  0  0  0  0  0  0  0  0  0
   -3.2346   -0.2279    0.7597 H   0  0  0  0  0  0  0  0  0  0  0  0
   -2.6812   -1.9347    0.6584 H   0  0  0  0  0  0  0  0  0  0  0  0
    1.3355   -3.0352   -0.1238 H   0  0  0  0  0  0  0  0  0  0  0  0
    3.1698    0.2676    0.7924 H   0  0  0  0  0  0  0  0  0  0  0  0
    1.8677    2.5620   -0.5698 H   0  0  0  0  0  0  0  0  0  0  0  0
   -1.4554    2.7218    0.3335 H   0  0  0  0  0  0  0  0  0  0  0  0
   -3.6055   -1.2067   -1.3432 H   0  0  0  0  0  0  0  0  0  0  0  0
  1  2  1  0  0  0  0
  2  3  1  0  0  0  0
  2  4  1  0  0  0  0
  4  5  1  0  0  0  0
  4  6  1  0  0  0  0
  6  7  1  0  0  0  0
  6  8  1  0  0  0  0
  8  9  1  0  0  0  0
  8 10  1  0  0  0  0
 10 11  1  0  0  0  0
  2 12  1  0  0  0  0
 10 12  1  0  0  0  0
 10 13  1  0  0  0  0
  8 14  1  0  0  0  0
  6 15  1  0  0  0  0
  4 16  1  0  0  0  0
  1 17  1  0  0  0  0
  1 18  1  0  0  0  0
  1 19  1  0  0  0  0
 13 20  1  0  0  0  0
 14 21  1  0  0  0  0
 15 22  1  0  0  0  0
 16 23  1  0  0  0  0
 17 24  1  0  0  0  0
M  END
