 xtb: 6.7.1 (edcfbbe)
          04062518003D

 24 24  0     0  0            999 V2000
   -2.5471   -0.6744   -0.3809 C   0  0  0  0  0  0  0  0  0  0  0  0
   -1.1713   -0.3184    0.1777 C   0  0  0  0  0  0  0  0  0  0  0  0
   -1.2417   -0.2849    1.2751 H   0  0  0  0  0  0  0  0  0  0  0  0
   -0.6953    1.0504   -0.3315 C   0  0  0  0  0  0  0  0  0  0  0  0
   -0.6677    1.0307   -1.4328 H   0  0  0  0  0  0  0  0  0  0  0  0
    0.7275    1.3219    0.1752 C   0  0  0  0  0  0  0  0  0  0  0  0
    0.7047    1.4113    1.2731 H   0  0  0  0  0  0  0  0  0  0  0  0
    1.6466    0.1549   -0.1934 C   0  0  0  0  0  0  0  0  0  0  0  0
    1.7330    0.1023   -1.2904 H   0  0  0  0  0  0  0  0  0  0  0  0
    1.0241   -1.1618    0.3175 C   0  0  0  0  0  0  0  0  0  0  0  0
    0.9929   -1.1294    1.4217 H   0  0  0  0  0  0  0  0  0  0  0  0
   -0.2629   -1.3304   -0.2131 O   0  0  0  0  0  0  0  0  0  0  0  0
    1.7976   -2.2537   -0.0404 O   0  0  0  0  0  0  0  0  0  0  0  0
    2.9055    0.3832    0.3883 O   0  0  0  0  0  0  0  0  0  0  0  0
    1.1583    2.5318   -0.3986 O   0  0  0  0  0  0  0  0  0  0  0  0
   -1.5912    2.0312    0.1157 O   0  0  0  0  0  0  0  0  0  0  0  0
   -3.1025   -1.7016    0.4056 O   0  0  0  0  0  0  0  0  0  0  0  0
   -2.4210   -0.9988   -1.4202 H   0  0  0  0  0  0  0  0  0  0  0  0
   -3.1649    0.2300   -0.3404 H   0  0  0  0  0  0  0  0  0  0  0  0
    1.4631   -2.6128   -0.8773 H   0  0  0  0  0  0  0  0  0  0  0  0
    3.4353   -0.4256    0.3195 H   0  0  0  0  0  0  0  0  0  0  0  0
    2.0854    2.6747   -0.1576 H   0  0  0  0  0  0  0  0  0  0  0  0
   -1.2151    2.9009   -0.0938 H   0  0  0  0  0  0  0  0  0  0  0  0
   -3.9627   -1.9517    0.0391 H   0  0  0  0  0  0  0  0  0  0  0  0
  1  2  1  0  0  0  0
  2  3  1  0  0  0  0
  2  4  1  0  0  0  0
  4  5  1  0  0  0  0
  4  6  1  0  0  0  0
  6  7  1  0  0  0  0
  6  8  1  0  0  0  0
  8  9  1  0  0  0  0
  8 10  1  0  0  0  0
 10 11  1  0  0  0  0
  2 12  1  0  0  0  0
 10 12  1  0  0  0  0
 10 13  1  0  0  0  0
  8 14  1  0  0  0  0
  6 15  1  0  0  0  0
  4 16  1  0  0  0  0
  1 17  1  0  0  0  0
  1 18  1  0  0  0  0
  1 19  1  0  0  0  0
 13 20  1  0  0  0  0
 14 21  1  0  0  0  0
 15 22  1  0  0  0  0
 16 23  1  0  0  0  0
 17 24  1  0  0  0  0
M  END
