 xtb: 6.7.1 (edcfbbe)
          04062518003D

 24 24  0     0  0            999 V2000
   -2.2021   -1.0407   -0.4169 C   0  0  0  0  0  0  0  0  0  0  0  0
   -1.1784   -0.2168    0.3788 C   0  0  0  0  0  0  0  0  0  0  0  0
   -1.6711    0.2012    1.2659 H   0  0  0  0  0  0  0  0  0  0  0  0
   -0.5951    0.9417   -0.4432 C   0  0  0  0  0  0  0  0  0  0  0  0
   -0.4239    0.6219   -1.4813 H   0  0  0  0  0  0  0  0  0  0  0  0
    0.7551    1.3306    0.1724 C   0  0  0  0  0  0  0  0  0  0  0  0
    0.6133    1.4938    1.2528 H   0  0  0  0  0  0  0  0  0  0  0  0
    1.7375    0.1746   -0.0321 C   0  0  0  0  0  0  0  0  0  0  0  0
    2.0921    0.2127   -1.0729 H   0  0  0  0  0  0  0  0  0  0  0  0
    1.0289   -1.1793    0.1674 C   0  0  0  0  0  0  0  0  0  0  0  0
    1.6770   -1.7948    0.8049 H   0  0  0  0  0  0  0  0  0  0  0  0
   -0.1631   -1.0788    0.9034 O   0  0  0  0  0  0  0  0  0  0  0  0
    0.8282   -1.7552   -1.0866 O   0  0  0  0  0  0  0  0  0  0  0  0
    2.8173    0.2310    0.8618 O   0  0  0  0  0  0  0  0  0  0  0  0
    1.2954    2.4792   -0.4269 O   0  0  0  0  0  0  0  0  0  0  0  0
   -1.4120    2.0857   -0.3984 O   0  0  0  0  0  0  0  0  0  0  0  0
   -2.8833   -1.9582    0.4025 O   0  0  0  0  0  0  0  0  0  0  0  0
   -1.6869   -1.5577   -1.2369 H   0  0  0  0  0  0  0  0  0  0  0  0
   -2.9696   -0.3860   -0.8334 H   0  0  0  0  0  0  0  0  0  0  0  0
    0.7152   -2.7146   -1.0078 H   0  0  0  0  0  0  0  0  0  0  0  0
    3.2681    1.0817    0.7496 H   0  0  0  0  0  0  0  0  0  0  0  0
    0.5953    3.1491   -0.4742 H   0  0  0  0  0  0  0  0  0  0  0  0
   -2.2251    1.9423   -0.9005 H   0  0  0  0  0  0  0  0  0  0  0  0
   -2.2313   -2.4278    0.9431 H   0  0  0  0  0  0  0  0  0  0  0  0
  1  2  1  0  0  0  0
  2  3  1  0  0  0  0
  2  4  1  0  0  0  0
  4  5  1  0  0  0  0
  4  6  1  0  0  0  0
  6  7  1  0  0  0  0
  6  8  1  0  0  0  0
  8  9  1  0  0  0  0
  8 10  1  0  0  0  0
 10 11  1  0  0  0  0
  2 12  1  0  0  0  0
 10 12  1  0  0  0  0
 10 13  1  0  0  0  0
  8 14  1  0  0  0  0
  6 15  1  0  0  0  0
  4 16  1  0  0  0  0
  1 17  1  0  0  0  0
  1 18  1  0  0  0  0
  1 19  1  0  0  0  0
 13 20  1  0  0  0  0
 14 21  1  0  0  0  0
 15 22  1  0  0  0  0
 16 23  1  0  0  0  0
 17 24  1  0  0  0  0
M  END
