 xtb: 6.7.1 (edcfbbe)
          04062518003D

 24 24  0     0  0            999 V2000
   -2.2700   -0.9452    0.7779 C   0  0  0  0  0  0  0  0  0  0  0  0
   -0.8160   -0.4396    0.7456 C   0  0  0  0  0  0  0  0  0  0  0  0
   -0.5359   -0.1256    1.7609 H   0  0  0  0  0  0  0  0  0  0  0  0
   -0.6252    0.7369   -0.2170 C   0  0  0  0  0  0  0  0  0  0  0  0
   -0.7436    0.3532   -1.2428 H   0  0  0  0  0  0  0  0  0  0  0  0
    0.8046    1.2910   -0.0674 C   0  0  0  0  0  0  0  0  0  0  0  0
    0.7937    2.0545    0.7191 H   0  0  0  0  0  0  0  0  0  0  0  0
    1.7904    0.1719    0.3462 C   0  0  0  0  0  0  0  0  0  0  0  0
    2.7492    0.3624   -0.1554 H   0  0  0  0  0  0  0  0  0  0  0  0
    1.2738   -1.1779   -0.1697 C   0  0  0  0  0  0  0  0  0  0  0  0
    1.9550   -1.9786    0.1571 H   0  0  0  0  0  0  0  0  0  0  0  0
    0.0229   -1.5254    0.3577 O   0  0  0  0  0  0  0  0  0  0  0  0
    1.2428   -1.0885   -1.5652 O   0  0  0  0  0  0  0  0  0  0  0  0
    1.9573    0.0667    1.7355 O   0  0  0  0  0  0  0  0  0  0  0  0
    1.2275    1.9490   -1.2353 O   0  0  0  0  0  0  0  0  0  0  0  0
   -1.6055    1.7102    0.0532 O   0  0  0  0  0  0  0  0  0  0  0  0
   -2.9236   -0.9036   -0.4638 O   0  0  0  0  0  0  0  0  0  0  0  0
   -2.8199   -0.3612    1.5224 H   0  0  0  0  0  0  0  0  0  0  0  0
   -2.2467   -1.9938    1.0802 H   0  0  0  0  0  0  0  0  0  0  0  0
    0.9364   -1.9294   -1.9381 H   0  0  0  0  0  0  0  0  0  0  0  0
    2.4873    0.8103    2.0591 H   0  0  0  0  0  0  0  0  0  0  0  0
    1.3120    1.2974   -1.9485 H   0  0  0  0  0  0  0  0  0  0  0  0
   -1.4059    2.5050   -0.4635 H   0  0  0  0  0  0  0  0  0  0  0  0
   -3.1135    0.0229   -0.6746 H   0  0  0  0  0  0  0  0  0  0  0  0
  1  2  1  0  0  0  0
  2  3  1  0  0  0  0
  2  4  1  0  0  0  0
  4  5  1  0  0  0  0
  4  6  1  0  0  0  0
  6  7  1  0  0  0  0
  6  8  1  0  0  0  0
  8  9  1  0  0  0  0
  8 10  1  0  0  0  0
 10 11  1  0  0  0  0
  2 12  1  0  0  0  0
 10 12  1  0  0  0  0
 10 13  1  0  0  0  0
  8 14  1  0  0  0  0
  6 15  1  0  0  0  0
  4 16  1  0  0  0  0
  1 17  1  0  0  0  0
  1 18  1  0  0  0  0
  1 19  1  0  0  0  0
 13 20  1  0  0  0  0
 14 21  1  0  0  0  0
 15 22  1  0  0  0  0
 16 23  1  0  0  0  0
 17 24  1  0  0  0  0
M  END
