 xtb: 6.7.1 (edcfbbe)
          04032522173D

 12 11  0     0  0            999 V2000
   -0.5291    1.4138   -0.0001 C   0  0  0  0  0  0  0  0  0  0  0  0
   -0.4149   -0.0280    0.0004 N   0  0  0  0  0  0  0  0  0  0  0  0
   -1.6567   -0.7617   -0.0001 C   0  0  0  0  0  0  0  0  0  0  0  0
    0.7719   -0.6184   -0.0001 C   0  0  0  0  0  0  0  0  0  0  0  0
    1.8577   -0.0491    0.0000 O   0  0  0  0  0  0  0  0  0  0  0  0
   -1.0612    1.7461   -0.8917 H   0  0  0  0  0  0  0  0  0  0  0  0
    0.4743    1.8347    0.0043 H   0  0  0  0  0  0  0  0  0  0  0  0
   -1.0693    1.7461    0.8865 H   0  0  0  0  0  0  0  0  0  0  0  0
   -2.2389   -0.5026   -0.8855 H   0  0  0  0  0  0  0  0  0  0  0  0
   -2.2370   -0.5077    0.8880 H   0  0  0  0  0  0  0  0  0  0  0  0
   -1.4566   -1.8300   -0.0034 H   0  0  0  0  0  0  0  0  0  0  0  0
    0.7131   -1.7202   -0.0004 H   0  0  0  0  0  0  0  0  0  0  0  0
  1  2  1  0  0  0  0
  2  3  1  0  0  0  0
  2  4  4  0  0  0  0
  4  5  2  0  0  0  0
  1  6  1  0  0  0  0
  1  7  1  0  0  0  0
  1  8  1  0  0  0  0
  3  9  1  0  0  0  0
  3 10  1  0  0  0  0
  3 11  1  0  0  0  0
  4 12  1  0  0  0  0
M  END
