 xtb: 6.7.1 (edcfbbe)
          04062505073D

 29 29  0     0  0            999 V2000
   -3.5248   -0.0993   -0.2752 C   0  0  0  0  0  0  0  0  0  0  0  0
   -2.0221    0.0353   -0.5124 C   0  0  0  0  0  0  0  0  0  0  0  0
   -1.8705    0.5029   -1.4907 H   0  0  0  0  0  0  0  0  0  0  0  0
   -1.3230   -1.3375   -0.4997 C   0  0  0  0  0  0  0  0  0  0  0  0
   -0.3375   -1.4907    0.6571 C   0  0  0  0  0  0  0  0  0  0  0  0
    0.7122   -0.3711    0.7205 C   0  0  0  0  0  0  0  0  0  0  0  0
    1.0516   -0.3088    1.7639 H   0  0  0  0  0  0  0  0  0  0  0  0
    0.0799    0.9760    0.4630 C   0  0  0  0  0  0  0  0  0  0  0  0
    0.7142    1.9896    0.2354 O   0  0  0  0  0  0  0  0  0  0  0  0
   -1.4193    0.9769    0.5443 C   0  0  0  0  0  0  0  0  0  0  0  0
    1.9914   -0.6363   -0.1123 C   0  0  0  0  0  0  0  0  0  0  0  0
    1.8430   -0.2858   -1.5915 C   0  0  0  0  0  0  0  0  0  0  0  0
    3.1782    0.1272    0.4773 C   0  0  0  0  0  0  0  0  0  0  0  0
   -3.7169   -0.5790    0.6817 H   0  0  0  0  0  0  0  0  0  0  0  0
   -4.0007    0.8784   -0.2727 H   0  0  0  0  0  0  0  0  0  0  0  0
   -3.9779   -0.6982   -1.0613 H   0  0  0  0  0  0  0  0  0  0  0  0
   -2.0718   -2.1267   -0.4185 H   0  0  0  0  0  0  0  0  0  0  0  0
   -0.7999   -1.4907   -1.4426 H   0  0  0  0  0  0  0  0  0  0  0  0
   -0.8983   -1.5061    1.5933 H   0  0  0  0  0  0  0  0  0  0  0  0
    0.1701   -2.4523    0.5710 H   0  0  0  0  0  0  0  0  0  0  0  0
   -1.7132    0.6373    1.5386 H   0  0  0  0  0  0  0  0  0  0  0  0
   -1.7878    1.9934    0.3978 H   0  0  0  0  0  0  0  0  0  0  0  0
    2.2063   -1.7084   -0.0350 H   0  0  0  0  0  0  0  0  0  0  0  0
    1.0626   -0.8729   -2.0658 H   0  0  0  0  0  0  0  0  0  0  0  0
    2.7777   -0.4862   -2.1100 H   0  0  0  0  0  0  0  0  0  0  0  0
    1.6092    0.7695   -1.7115 H   0  0  0  0  0  0  0  0  0  0  0  0
    3.3577   -0.1689    1.5087 H   0  0  0  0  0  0  0  0  0  0  0  0
    2.9845    1.1966    0.4509 H   0  0  0  0  0  0  0  0  0  0  0  0
    4.0786   -0.0740   -0.0981 H   0  0  0  0  0  0  0  0  0  0  0  0
  1  2  1  0  0  0  0
  2  3  1  0  0  0  0
  2  4  1  0  0  0  0
  4  5  1  0  0  0  0
  5  6  1  0  0  0  0
  6  7  1  0  0  0  0
  6  8  1  0  0  0  0
  8  9  2  0  0  0  0
  2 10  1  0  0  0  0
  8 10  1  0  0  0  0
  6 11  1  0  0  0  0
 11 12  1  0  0  0  0
 11 13  1  0  0  0  0
  1 14  1  0  0  0  0
  1 15  1  0  0  0  0
  1 16  1  0  0  0  0
  4 17  1  0  0  0  0
  4 18  1  0  0  0  0
  5 19  1  0  0  0  0
  5 20  1  0  0  0  0
 10 21  1  0  0  0  0
 10 22  1  0  0  0  0
 11 23  1  0  0  0  0
 12 24  1  0  0  0  0
 12 25  1  0  0  0  0
 12 26  1  0  0  0  0
 13 27  1  0  0  0  0
 13 28  1  0  0  0  0
 13 29  1  0  0  0  0
M  END
