 xtb: 6.7.1 (edcfbbe)
          04062518003D

 24 24  0     0  0            999 V2000
   -1.9566   -0.6048   -0.8012 C   0  0  0  0  0  0  0  0  0  0  0  0
   -1.1763   -0.1238    0.4313 C   0  0  0  0  0  0  0  0  0  0  0  0
   -1.8799   -0.0894    1.2716 H   0  0  0  0  0  0  0  0  0  0  0  0
   -0.6020    1.2901    0.2429 C   0  0  0  0  0  0  0  0  0  0  0  0
   -1.3222    1.8726   -0.3464 H   0  0  0  0  0  0  0  0  0  0  0  0
    0.7471    1.2913   -0.5168 C   0  0  0  0  0  0  0  0  0  0  0  0
    1.1870    2.2941   -0.4237 H   0  0  0  0  0  0  0  0  0  0  0  0
    1.7046    0.2843    0.1384 C   0  0  0  0  0  0  0  0  0  0  0  0
    2.6067    0.1847   -0.4750 H   0  0  0  0  0  0  0  0  0  0  0  0
    1.0293   -1.0999    0.2154 C   0  0  0  0  0  0  0  0  0  0  0  0
    1.6454   -1.7465    0.8581 H   0  0  0  0  0  0  0  0  0  0  0  0
   -0.2059   -1.0651    0.8779 O   0  0  0  0  0  0  0  0  0  0  0  0
    0.9435   -1.6144   -1.0831 O   0  0  0  0  0  0  0  0  0  0  0  0
    2.1307    0.7057    1.4047 O   0  0  0  0  0  0  0  0  0  0  0  0
    0.5773    1.0603   -1.8924 O   0  0  0  0  0  0  0  0  0  0  0  0
   -0.4454    1.8463    1.5322 O   0  0  0  0  0  0  0  0  0  0  0  0
   -2.6511   -1.7810   -0.4490 O   0  0  0  0  0  0  0  0  0  0  0  0
   -1.2762   -0.7903   -1.6376 H   0  0  0  0  0  0  0  0  0  0  0  0
   -2.6595    0.1888   -1.0836 H   0  0  0  0  0  0  0  0  0  0  0  0
    0.6466   -2.5368   -1.0534 H   0  0  0  0  0  0  0  0  0  0  0  0
    1.3447    0.8829    1.9527 H   0  0  0  0  0  0  0  0  0  0  0  0
    0.6896    0.1119   -2.0692 H   0  0  0  0  0  0  0  0  0  0  0  0
   -0.3119    2.8027    1.4662 H   0  0  0  0  0  0  0  0  0  0  0  0
   -3.1866   -2.0712   -1.2008 H   0  0  0  0  0  0  0  0  0  0  0  0
  1  2  1  0  0  0  0
  2  3  1  0  0  0  0
  2  4  1  0  0  0  0
  4  5  1  0  0  0  0
  4  6  1  0  0  0  0
  6  7  1  0  0  0  0
  6  8  1  0  0  0  0
  8  9  1  0  0  0  0
  8 10  1  0  0  0  0
 10 11  1  0  0  0  0
  2 12  1  0  0  0  0
 10 12  1  0  0  0  0
 10 13  1  0  0  0  0
  8 14  1  0  0  0  0
  6 15  1  0  0  0  0
  4 16  1  0  0  0  0
  1 17  1  0  0  0  0
  1 18  1  0  0  0  0
  1 19  1  0  0  0  0
 13 20  1  0  0  0  0
 14 21  1  0  0  0  0
 15 22  1  0  0  0  0
 16 23  1  0  0  0  0
 17 24  1  0  0  0  0
M  END
