 xtb: 6.7.1 (edcfbbe)
          04062518003D

 24 24  0     0  0            999 V2000
   -2.5617   -0.8759    0.2714 C   0  0  0  0  0  0  0  0  0  0  0  0
   -1.1360   -0.4295    0.6268 C   0  0  0  0  0  0  0  0  0  0  0  0
   -1.0350   -0.3748    1.7230 H   0  0  0  0  0  0  0  0  0  0  0  0
   -0.8296    0.9590    0.0265 C   0  0  0  0  0  0  0  0  0  0  0  0
   -1.0560    0.9425   -1.0447 H   0  0  0  0  0  0  0  0  0  0  0  0
    0.6561    1.2859    0.2232 C   0  0  0  0  0  0  0  0  0  0  0  0
    0.8478    1.4003    1.3079 H   0  0  0  0  0  0  0  0  0  0  0  0
    1.5343    0.1380   -0.3042 C   0  0  0  0  0  0  0  0  0  0  0  0
    1.3948    0.0388   -1.3857 H   0  0  0  0  0  0  0  0  0  0  0  0
    1.1027   -1.1793    0.3570 C   0  0  0  0  0  0  0  0  0  0  0  0
    1.2684   -1.1015    1.4566 H   0  0  0  0  0  0  0  0  0  0  0  0
   -0.2632   -1.4254    0.1227 O   0  0  0  0  0  0  0  0  0  0  0  0
    1.8293   -2.2182   -0.1815 O   0  0  0  0  0  0  0  0  0  0  0  0
    2.8930    0.4319   -0.1194 O   0  0  0  0  0  0  0  0  0  0  0  0
    0.9631    2.4906   -0.4300 O   0  0  0  0  0  0  0  0  0  0  0  0
   -1.6739    1.9351    0.5731 O   0  0  0  0  0  0  0  0  0  0  0  0
   -2.7223   -1.0882   -1.1052 O   0  0  0  0  0  0  0  0  0  0  0  0
   -3.2573   -0.0815    0.5466 H   0  0  0  0  0  0  0  0  0  0  0  0
   -2.7993   -1.7878    0.8330 H   0  0  0  0  0  0  0  0  0  0  0  0
    1.4243   -3.0657    0.0628 H   0  0  0  0  0  0  0  0  0  0  0  0
    3.1508    0.2842    0.8025 H   0  0  0  0  0  0  0  0  0  0  0  0
    1.9217    2.5213   -0.5812 H   0  0  0  0  0  0  0  0  0  0  0  0
   -1.3688    2.1851    1.4577 H   0  0  0  0  0  0  0  0  0  0  0  0
   -2.0694   -1.7452   -1.3885 H   0  0  0  0  0  0  0  0  0  0  0  0
  1  2  1  0  0  0  0
  2  3  1  0  0  0  0
  2  4  1  0  0  0  0
  4  5  1  0  0  0  0
  4  6  1  0  0  0  0
  6  7  1  0  0  0  0
  6  8  1  0  0  0  0
  8  9  1  0  0  0  0
  8 10  1  0  0  0  0
 10 11  1  0  0  0  0
  2 12  1  0  0  0  0
 10 12  1  0  0  0  0
 10 13  1  0  0  0  0
  8 14  1  0  0  0  0
  6 15  1  0  0  0  0
  4 16  1  0  0  0  0
  1 17  1  0  0  0  0
  1 18  1  0  0  0  0
  1 19  1  0  0  0  0
 13 20  1  0  0  0  0
 14 21  1  0  0  0  0
 15 22  1  0  0  0  0
 16 23  1  0  0  0  0
 17 24  1  0  0  0  0
M  END
