 xtb: 6.7.1 (edcfbbe)
          04062518003D

 24 24  0     0  0            999 V2000
   -2.3767   -1.1399   -0.3892 C   0  0  0  0  0  0  0  0  0  0  0  0
   -1.0763   -0.6232    0.2355 C   0  0  0  0  0  0  0  0  0  0  0  0
   -1.1595   -0.6491    1.3338 H   0  0  0  0  0  0  0  0  0  0  0  0
   -0.7938    0.8374   -0.1733 C   0  0  0  0  0  0  0  0  0  0  0  0
   -0.9155    0.9471   -1.2628 H   0  0  0  0  0  0  0  0  0  0  0  0
    0.6434    1.2532    0.1724 C   0  0  0  0  0  0  0  0  0  0  0  0
    0.7029    1.4025    1.2612 H   0  0  0  0  0  0  0  0  0  0  0  0
    1.6564    0.1740   -0.2292 C   0  0  0  0  0  0  0  0  0  0  0  0
    1.6966    0.1252   -1.3294 H   0  0  0  0  0  0  0  0  0  0  0  0
    1.2085   -1.1964    0.3094 C   0  0  0  0  0  0  0  0  0  0  0  0
    1.1978   -1.1603    1.4123 H   0  0  0  0  0  0  0  0  0  0  0  0
   -0.0653   -1.5124   -0.1933 O   0  0  0  0  0  0  0  0  0  0  0  0
    2.0868   -2.2021   -0.0509 O   0  0  0  0  0  0  0  0  0  0  0  0
    2.9091    0.5399    0.2936 O   0  0  0  0  0  0  0  0  0  0  0  0
    0.9132    2.4576   -0.4994 O   0  0  0  0  0  0  0  0  0  0  0  0
   -1.6528    1.7138    0.5082 O   0  0  0  0  0  0  0  0  0  0  0  0
   -3.4540   -0.3557    0.0640 O   0  0  0  0  0  0  0  0  0  0  0  0
   -2.4938   -2.1895   -0.0967 H   0  0  0  0  0  0  0  0  0  0  0  0
   -2.2778   -1.0852   -1.4803 H   0  0  0  0  0  0  0  0  0  0  0  0
    1.8715   -2.5063   -0.9471 H   0  0  0  0  0  0  0  0  0  0  0  0
    3.5174   -0.2106    0.2095 H   0  0  0  0  0  0  0  0  0  0  0  0
    1.8070    2.7465   -0.2613 H   0  0  0  0  0  0  0  0  0  0  0  0
   -2.5652    1.3894    0.4043 H   0  0  0  0  0  0  0  0  0  0  0  0
   -4.2811   -0.7043   -0.2983 H   0  0  0  0  0  0  0  0  0  0  0  0
  1  2  1  0  0  0  0
  2  3  1  0  0  0  0
  2  4  1  0  0  0  0
  4  5  1  0  0  0  0
  4  6  1  0  0  0  0
  6  7  1  0  0  0  0
  6  8  1  0  0  0  0
  8  9  1  0  0  0  0
  8 10  1  0  0  0  0
 10 11  1  0  0  0  0
  2 12  1  0  0  0  0
 10 12  1  0  0  0  0
 10 13  1  0  0  0  0
  8 14  1  0  0  0  0
  6 15  1  0  0  0  0
  4 16  1  0  0  0  0
  1 17  1  0  0  0  0
  1 18  1  0  0  0  0
  1 19  1  0  0  0  0
 13 20  1  0  0  0  0
 14 21  1  0  0  0  0
 15 22  1  0  0  0  0
 16 23  1  0  0  0  0
 17 24  1  0  0  0  0
M  END
