 xtb: 6.7.1 (edcfbbe)
          04062518003D

 24 24  0     0  0            999 V2000
   -2.4149   -0.8671    0.3721 C   0  0  0  0  0  0  0  0  0  0  0  0
   -0.9584   -0.4435    0.5952 C   0  0  0  0  0  0  0  0  0  0  0  0
   -0.6953   -0.6112    1.6516 H   0  0  0  0  0  0  0  0  0  0  0  0
   -0.7428    1.0504    0.2643 C   0  0  0  0  0  0  0  0  0  0  0  0
   -1.5415    1.3765   -0.4121 H   0  0  0  0  0  0  0  0  0  0  0  0
    0.6206    1.2558   -0.4342 C   0  0  0  0  0  0  0  0  0  0  0  0
    0.9359    2.2923   -0.2376 H   0  0  0  0  0  0  0  0  0  0  0  0
    1.6693    0.3288    0.1980 C   0  0  0  0  0  0  0  0  0  0  0  0
    2.5994    0.4236   -0.3737 H   0  0  0  0  0  0  0  0  0  0  0  0
    1.2194   -1.1482    0.0782 C   0  0  0  0  0  0  0  0  0  0  0  0
    1.4012   -1.6381    1.0640 H   0  0  0  0  0  0  0  0  0  0  0  0
   -0.1479   -1.2746   -0.2204 O   0  0  0  0  0  0  0  0  0  0  0  0
    1.9534   -1.7642   -0.9150 O   0  0  0  0  0  0  0  0  0  0  0  0
    1.8249    0.7215    1.5393 O   0  0  0  0  0  0  0  0  0  0  0  0
    0.5870    0.9931   -1.8102 O   0  0  0  0  0  0  0  0  0  0  0  0
   -0.8568    1.8543    1.4095 O   0  0  0  0  0  0  0  0  0  0  0  0
   -2.8393   -0.6450   -0.9469 O   0  0  0  0  0  0  0  0  0  0  0  0
   -3.0593   -0.2627    1.0128 H   0  0  0  0  0  0  0  0  0  0  0  0
   -2.5204   -1.9257    0.6401 H   0  0  0  0  0  0  0  0  0  0  0  0
    1.4745   -2.5466   -1.2300 H   0  0  0  0  0  0  0  0  0  0  0  0
    2.6728    0.4090    1.8845 H   0  0  0  0  0  0  0  0  0  0  0  0
    0.0230    1.6445   -2.2512 H   0  0  0  0  0  0  0  0  0  0  0  0
   -0.0844    1.6975    1.9768 H   0  0  0  0  0  0  0  0  0  0  0  0
   -2.2503   -1.1341   -1.5400 H   0  0  0  0  0  0  0  0  0  0  0  0
  1  2  1  0  0  0  0
  2  3  1  0  0  0  0
  2  4  1  0  0  0  0
  4  5  1  0  0  0  0
  4  6  1  0  0  0  0
  6  7  1  0  0  0  0
  6  8  1  0  0  0  0
  8  9  1  0  0  0  0
  8 10  1  0  0  0  0
 10 11  1  0  0  0  0
  2 12  1  0  0  0  0
 10 12  1  0  0  0  0
 10 13  1  0  0  0  0
  8 14  1  0  0  0  0
  6 15  1  0  0  0  0
  4 16  1  0  0  0  0
  1 17  1  0  0  0  0
  1 18  1  0  0  0  0
  1 19  1  0  0  0  0
 13 20  1  0  0  0  0
 14 21  1  0  0  0  0
 15 22  1  0  0  0  0
 16 23  1  0  0  0  0
 17 24  1  0  0  0  0
M  END
