 xtb: 6.7.1 (edcfbbe)
          04052503093D

 19 19  0     0  0            999 V2000
   -2.4122   -1.0188    0.7934 C   0  0  0  0  0  0  0  0  0  0  0  0
   -1.7206    0.0169   -0.0484 C   0  0  0  0  0  0  0  0  0  0  0  0
   -2.4532    0.8687   -0.7644 C   0  0  0  0  0  0  0  0  0  0  0  0
   -0.2472    0.0325   -0.0323 C   0  0  0  0  0  0  0  0  0  0  0  0
    0.4711   -0.8698    0.7566 C   0  0  0  0  0  0  0  0  0  0  0  0
    1.8538   -0.8634    0.7795 C   0  0  0  0  0  0  0  0  0  0  0  0
    2.5639    0.0450    0.0148 C   0  0  0  0  0  0  0  0  0  0  0  0
    1.8708    0.9474   -0.7749 C   0  0  0  0  0  0  0  0  0  0  0  0
    0.4898    0.9404   -0.7979 C   0  0  0  0  0  0  0  0  0  0  0  0
   -2.1592   -0.8898    1.8444 H   0  0  0  0  0  0  0  0  0  0  0  0
   -3.4898   -0.9293    0.6869 H   0  0  0  0  0  0  0  0  0  0  0  0
   -2.1179   -2.0212    0.4874 H   0  0  0  0  0  0  0  0  0  0  0  0
   -2.0351    1.6377   -1.3880 H   0  0  0  0  0  0  0  0  0  0  0  0
   -3.5288    0.8227   -0.7483 H   0  0  0  0  0  0  0  0  0  0  0  0
   -0.0461   -1.5922    1.3666 H   0  0  0  0  0  0  0  0  0  0  0  0
    2.3794   -1.5743    1.4002 H   0  0  0  0  0  0  0  0  0  0  0  0
    3.6433    0.0506    0.0326 H   0  0  0  0  0  0  0  0  0  0  0  0
    2.4107    1.6625   -1.3782 H   0  0  0  0  0  0  0  0  0  0  0  0
   -0.0162    1.6559   -1.4259 H   0  0  0  0  0  0  0  0  0  0  0  0
  1  2  1  0  0  0  0
  2  3  2  0  0  0  0
  2  4  1  0  0  0  0
  4  5  4  0  0  0  0
  5  6  4  0  0  0  0
  6  7  4  0  0  0  0
  7  8  4  0  0  0  0
  4  9  4  0  0  0  0
  8  9  4  0  0  0  0
  1 10  1  0  0  0  0
  1 11  1  0  0  0  0
  1 12  1  0  0  0  0
  3 13  1  0  0  0  0
  3 14  1  0  0  0  0
  5 15  1  0  0  0  0
  6 16  1  0  0  0  0
  7 17  1  0  0  0  0
  8 18  1  0  0  0  0
  9 19  1  0  0  0  0
M  END
