 xtb: 6.7.1 (edcfbbe)
          04032521433D

 13 13  0     0  0            999 V2000
    0.8502   -1.8329    0.0001 C   0  0  0  0  0  0  0  0  0  0  0  0
    1.8678   -0.9010   -0.0000 C   0  0  0  0  0  0  0  0  0  0  0  0
    1.5673    0.4603    0.0000 C   0  0  0  0  0  0  0  0  0  0  0  0
    0.2378    0.8724    0.0002 C   0  0  0  0  0  0  0  0  0  0  0  0
   -0.7621   -0.0832    0.0000 C   0  0  0  0  0  0  0  0  0  0  0  0
   -0.4785   -1.4361   -0.0001 C   0  0  0  0  0  0  0  0  0  0  0  0
   -2.4236    0.4433   -0.0000 Cl  0  0  0  0  0  0  0  0  0  0  0  0
    2.5931    1.3405   -0.0001 O   0  0  0  0  0  0  0  0  0  0  0  0
    1.0888   -2.8842    0.0002 H   0  0  0  0  0  0  0  0  0  0  0  0
    2.9032   -1.1998   -0.0003 H   0  0  0  0  0  0  0  0  0  0  0  0
   -0.0178    1.9205    0.0002 H   0  0  0  0  0  0  0  0  0  0  0  0
   -1.2753   -2.1609    0.0000 H   0  0  0  0  0  0  0  0  0  0  0  0
    2.2706    2.2551   -0.0002 H   0  0  0  0  0  0  0  0  0  0  0  0
  1  2  4  0  0  0  0
  2  3  4  0  0  0  0
  3  4  4  0  0  0  0
  4  5  4  0  0  0  0
  1  6  4  0  0  0  0
  5  6  4  0  0  0  0
  5  7  1  0  0  0  0
  3  8  1  0  0  0  0
  1  9  1  0  0  0  0
  2 10  1  0  0  0  0
  4 11  1  0  0  0  0
  6 12  1  0  0  0  0
  8 13  1  0  0  0  0
M  END
