 xtb: 6.7.1 (edcfbbe)
          04052512103D

 26 25  0     0  0            999 V2000
   -2.4727    0.8646    0.9635 C   0  0  0  0  0  0  0  0  0  0  0  0
   -1.4317    0.3998   -0.0569 C   0  0  0  0  0  0  0  0  0  0  0  0
   -2.0795   -0.6093   -1.0047 C   0  0  0  0  0  0  0  0  0  0  0  0
   -0.2249   -0.2096    0.6754 C   0  0  0  0  0  0  0  0  0  0  0  0
    1.1809   -0.1221    0.0143 C   0  0  0  0  0  0  0  0  0  0  0  0
    1.1823    0.4333   -1.4131 C   0  0  0  0  0  0  0  0  0  0  0  0
    2.0744    0.7879    0.8674 C   0  0  0  0  0  0  0  0  0  0  0  0
    1.7983   -1.5255   -0.0178 C   0  0  0  0  0  0  0  0  0  0  0  0
   -2.7869    0.0328    1.5908 H   0  0  0  0  0  0  0  0  0  0  0  0
   -2.0658    1.6442    1.6037 H   0  0  0  0  0  0  0  0  0  0  0  0
   -3.3498    1.2616    0.4574 H   0  0  0  0  0  0  0  0  0  0  0  0
   -1.1172    1.2742   -0.6309 H   0  0  0  0  0  0  0  0  0  0  0  0
   -1.3604   -1.0108   -1.7128 H   0  0  0  0  0  0  0  0  0  0  0  0
   -2.4956   -1.4398   -0.4372 H   0  0  0  0  0  0  0  0  0  0  0  0
   -2.8859   -0.1419   -1.5658 H   0  0  0  0  0  0  0  0  0  0  0  0
   -0.1542    0.2721    1.6523 H   0  0  0  0  0  0  0  0  0  0  0  0
   -0.4575   -1.2594    0.8653 H   0  0  0  0  0  0  0  0  0  0  0  0
    2.1947    0.3948   -1.8107 H   0  0  0  0  0  0  0  0  0  0  0  0
    0.8583    1.4704   -1.4351 H   0  0  0  0  0  0  0  0  0  0  0  0
    0.5432   -0.1477   -2.0705 H   0  0  0  0  0  0  0  0  0  0  0  0
    3.0679    0.8671    0.4309 H   0  0  0  0  0  0  0  0  0  0  0  0
    2.1770    0.3916    1.8753 H   0  0  0  0  0  0  0  0  0  0  0  0
    1.6487    1.7870    0.9303 H   0  0  0  0  0  0  0  0  0  0  0  0
    1.8419   -1.9473    0.9840 H   0  0  0  0  0  0  0  0  0  0  0  0
    2.8103   -1.4903   -0.4160 H   0  0  0  0  0  0  0  0  0  0  0  0
    1.2068   -2.1877   -0.6462 H   0  0  0  0  0  0  0  0  0  0  0  0
  1  2  1  0  0  0  0
  2  3  1  0  0  0  0
  2  4  1  0  0  0  0
  4  5  1  0  0  0  0
  5  6  1  0  0  0  0
  5  7  1  0  0  0  0
  5  8  1  0  0  0  0
  1  9  1  0  0  0  0
  1 10  1  0  0  0  0
  1 11  1  0  0  0  0
  2 12  1  0  0  0  0
  3 13  1  0  0  0  0
  3 14  1  0  0  0  0
  3 15  1  0  0  0  0
  4 16  1  0  0  0  0
  4 17  1  0  0  0  0
  6 18  1  0  0  0  0
  6 19  1  0  0  0  0
  6 20  1  0  0  0  0
  7 21  1  0  0  0  0
  7 22  1  0  0  0  0
  7 23  1  0  0  0  0
  8 24  1  0  0  0  0
  8 25  1  0  0  0  0
  8 26  1  0  0  0  0
M  END
