 xtb: 6.7.1 (edcfbbe)
          04042523583D

 17 17  0     0  0            999 V2000
   -2.4683    0.7091    0.9780 C   0  0  0  0  0  0  0  0  0  0  0  0
   -1.6878   -0.0250   -0.0745 C   0  0  0  0  0  0  0  0  0  0  0  0
   -2.2544   -0.6811   -0.9369 O   0  0  0  0  0  0  0  0  0  0  0  0
   -0.2080    0.0186   -0.0123 C   0  0  0  0  0  0  0  0  0  0  0  0
    0.4958   -1.0898   -0.4872 C   0  0  0  0  0  0  0  0  0  0  0  0
    1.8762   -1.1148   -0.4532 C   0  0  0  0  0  0  0  0  0  0  0  0
    2.5747   -0.0212    0.0344 C   0  0  0  0  0  0  0  0  0  0  0  0
    1.8865    1.0951    0.4825 C   0  0  0  0  0  0  0  0  0  0  0  0
    0.5038    1.1173    0.4671 C   0  0  0  0  0  0  0  0  0  0  0  0
   -1.8562    1.3796    1.5674 H   0  0  0  0  0  0  0  0  0  0  0  0
   -2.9062   -0.0394    1.6373 H   0  0  0  0  0  0  0  0  0  0  0  0
   -3.2907    1.2461    0.5111 H   0  0  0  0  0  0  0  0  0  0  0  0
   -0.0666   -1.9286   -0.8708 H   0  0  0  0  0  0  0  0  0  0  0  0
    2.4073   -1.9833   -0.8111 H   0  0  0  0  0  0  0  0  0  0  0  0
    3.6534   -0.0362    0.0578 H   0  0  0  0  0  0  0  0  0  0  0  0
    2.4305    1.9533    0.8460 H   0  0  0  0  0  0  0  0  0  0  0  0
   -0.0136    2.0053    0.7942 H   0  0  0  0  0  0  0  0  0  0  0  0
  1  2  1  0  0  0  0
  2  3  2  0  0  0  0
  2  4  1  0  0  0  0
  4  5  4  0  0  0  0
  5  6  4  0  0  0  0
  6  7  4  0  0  0  0
  7  8  4  0  0  0  0
  4  9  4  0  0  0  0
  8  9  4  0  0  0  0
  1 10  1  0  0  0  0
  1 11  1  0  0  0  0
  1 12  1  0  0  0  0
  5 13  1  0  0  0  0
  6 14  1  0  0  0  0
  7 15  1  0  0  0  0
  8 16  1  0  0  0  0
  9 17  1  0  0  0  0
M  END
