 xtb: 6.7.1 (edcfbbe)
          04032521033D

  9  8  0     0  0            999 V2000
    0.2622   -0.5432   -0.0003 C   0  0  0  0  0  0  0  0  0  0  0  0
    1.3997    0.1505    0.0002 C   0  0  0  0  0  0  0  0  0  0  0  0
    2.6011   -0.3700    0.0005 F   0  0  0  0  0  0  0  0  0  0  0  0
    1.4389    1.4622   -0.0005 F   0  0  0  0  0  0  0  0  0  0  0  0
   -1.1069    0.1054   -0.0001 C   0  0  0  0  0  0  0  0  0  0  0  0
   -1.2943    0.8779    1.0780 F   0  0  0  0  0  0  0  0  0  0  0  0
   -1.2853    0.8967   -1.0658 F   0  0  0  0  0  0  0  0  0  0  0  0
   -2.0725   -0.8054   -0.0119 F   0  0  0  0  0  0  0  0  0  0  0  0
    0.2613   -1.8799   -0.0003 F   0  0  0  0  0  0  0  0  0  0  0  0
  1  2  2  0  0  0  0
  2  3  1  0  0  0  0
  2  4  1  0  0  0  0
  1  5  1  0  0  0  0
  5  6  1  0  0  0  0
  5  7  1  0  0  0  0
  5  8  1  0  0  0  0
  1  9  1  0  0  0  0
M  END
