 xtb: 6.7.1 (edcfbbe)
          04062518003D

 24 24  0     0  0            999 V2000
   -1.8668   -0.5725   -0.8554 C   0  0  0  0  0  0  0  0  0  0  0  0
   -1.1960   -0.1194    0.4464 C   0  0  0  0  0  0  0  0  0  0  0  0
   -1.9567   -0.1302    1.2355 H   0  0  0  0  0  0  0  0  0  0  0  0
   -0.6160    1.3007    0.3468 C   0  0  0  0  0  0  0  0  0  0  0  0
   -1.3533    1.9544   -0.1290 H   0  0  0  0  0  0  0  0  0  0  0  0
    0.6690    1.3196   -0.5030 C   0  0  0  0  0  0  0  0  0  0  0  0
    1.1236    2.3155   -0.3651 H   0  0  0  0  0  0  0  0  0  0  0  0
    1.6669    0.2676    0.0261 C   0  0  0  0  0  0  0  0  0  0  0  0
    2.4519    0.0992   -0.7247 H   0  0  0  0  0  0  0  0  0  0  0  0
    1.0055   -1.1024    0.2605 C   0  0  0  0  0  0  0  0  0  0  0  0
    1.6492   -1.6545    0.9663 H   0  0  0  0  0  0  0  0  0  0  0  0
   -0.2203   -1.0377    0.9336 O   0  0  0  0  0  0  0  0  0  0  0  0
    0.9350   -1.7638   -0.9648 O   0  0  0  0  0  0  0  0  0  0  0  0
    2.2184    0.6651    1.2589 O   0  0  0  0  0  0  0  0  0  0  0  0
    0.3215    1.1236   -1.8470 O   0  0  0  0  0  0  0  0  0  0  0  0
   -0.3808    1.8464    1.6195 O   0  0  0  0  0  0  0  0  0  0  0  0
   -2.6186   -1.7375   -0.5860 O   0  0  0  0  0  0  0  0  0  0  0  0
   -1.1085   -0.7578   -1.6212 H   0  0  0  0  0  0  0  0  0  0  0  0
   -2.5205    0.2408   -1.1932 H   0  0  0  0  0  0  0  0  0  0  0  0
    0.5618   -2.6480   -0.8300 H   0  0  0  0  0  0  0  0  0  0  0  0
    2.8115    1.4200    1.1286 H   0  0  0  0  0  0  0  0  0  0  0  0
    1.1086    1.1980   -2.4065 H   0  0  0  0  0  0  0  0  0  0  0  0
    0.2708    1.2911    2.0801 H   0  0  0  0  0  0  0  0  0  0  0  0
   -3.0695   -2.0137   -1.3960 H   0  0  0  0  0  0  0  0  0  0  0  0
  1  2  1  0  0  0  0
  2  3  1  0  0  0  0
  2  4  1  0  0  0  0
  4  5  1  0  0  0  0
  4  6  1  0  0  0  0
  6  7  1  0  0  0  0
  6  8  1  0  0  0  0
  8  9  1  0  0  0  0
  8 10  1  0  0  0  0
 10 11  1  0  0  0  0
  2 12  1  0  0  0  0
 10 12  1  0  0  0  0
 10 13  1  0  0  0  0
  8 14  1  0  0  0  0
  6 15  1  0  0  0  0
  4 16  1  0  0  0  0
  1 17  1  0  0  0  0
  1 18  1  0  0  0  0
  1 19  1  0  0  0  0
 13 20  1  0  0  0  0
 14 21  1  0  0  0  0
 15 22  1  0  0  0  0
 16 23  1  0  0  0  0
 17 24  1  0  0  0  0
M  END
