 xtb: 6.7.1 (edcfbbe)
          04062518003D

 24 24  0     0  0            999 V2000
   -2.0678   -1.3569   -0.1624 C   0  0  0  0  0  0  0  0  0  0  0  0
   -1.0302   -0.5006    0.5841 C   0  0  0  0  0  0  0  0  0  0  0  0
   -1.4869   -0.1639    1.5236 H   0  0  0  0  0  0  0  0  0  0  0  0
   -0.6403    0.7351   -0.2507 C   0  0  0  0  0  0  0  0  0  0  0  0
   -0.5353    0.4550   -1.3068 H   0  0  0  0  0  0  0  0  0  0  0  0
    0.7192    1.2294    0.2498 C   0  0  0  0  0  0  0  0  0  0  0  0
    0.7035    1.2997    1.3498 H   0  0  0  0  0  0  0  0  0  0  0  0
    1.7656    0.1770   -0.1404 C   0  0  0  0  0  0  0  0  0  0  0  0
    1.9431    0.2581   -1.2219 H   0  0  0  0  0  0  0  0  0  0  0  0
    1.2168   -1.2470    0.1277 C   0  0  0  0  0  0  0  0  0  0  0  0
    1.9694   -1.8154    0.6941 H   0  0  0  0  0  0  0  0  0  0  0  0
    0.1040   -1.2632    0.9853 O   0  0  0  0  0  0  0  0  0  0  0  0
    0.9514   -1.8364   -1.1068 O   0  0  0  0  0  0  0  0  0  0  0  0
    2.9325    0.4551    0.5902 O   0  0  0  0  0  0  0  0  0  0  0  0
    1.0007    2.4810   -0.3171 O   0  0  0  0  0  0  0  0  0  0  0  0
   -1.6555    1.7030   -0.2141 O   0  0  0  0  0  0  0  0  0  0  0  0
   -3.3228   -0.7261   -0.2084 O   0  0  0  0  0  0  0  0  0  0  0  0
   -2.2156   -2.2960    0.3761 H   0  0  0  0  0  0  0  0  0  0  0  0
   -1.7038   -1.5749   -1.1759 H   0  0  0  0  0  0  0  0  0  0  0  0
    0.7578   -2.7798   -0.9950 H   0  0  0  0  0  0  0  0  0  0  0  0
    3.6787   -0.0535    0.2424 H   0  0  0  0  0  0  0  0  0  0  0  0
    1.8908    2.7514   -0.0477 H   0  0  0  0  0  0  0  0  0  0  0  0
   -1.5208    2.3019    0.5335 H   0  0  0  0  0  0  0  0  0  0  0  0
   -3.2049    0.1809   -0.5345 H   0  0  0  0  0  0  0  0  0  0  0  0
  1  2  1  0  0  0  0
  2  3  1  0  0  0  0
  2  4  1  0  0  0  0
  4  5  1  0  0  0  0
  4  6  1  0  0  0  0
  6  7  1  0  0  0  0
  6  8  1  0  0  0  0
  8  9  1  0  0  0  0
  8 10  1  0  0  0  0
 10 11  1  0  0  0  0
  2 12  1  0  0  0  0
 10 12  1  0  0  0  0
 10 13  1  0  0  0  0
  8 14  1  0  0  0  0
  6 15  1  0  0  0  0
  4 16  1  0  0  0  0
  1 17  1  0  0  0  0
  1 18  1  0  0  0  0
  1 19  1  0  0  0  0
 13 20  1  0  0  0  0
 14 21  1  0  0  0  0
 15 22  1  0  0  0  0
 16 23  1  0  0  0  0
 17 24  1  0  0  0  0
M  END
