 xtb: 6.7.1 (edcfbbe)
          04062518003D

 24 24  0     0  0            999 V2000
   -2.2333   -1.1752    0.1005 C   0  0  0  0  0  0  0  0  0  0  0  0
   -0.8670   -0.5426    0.4126 C   0  0  0  0  0  0  0  0  0  0  0  0
   -0.8299   -0.2506    1.4728 H   0  0  0  0  0  0  0  0  0  0  0  0
   -0.5712    0.7042   -0.4274 C   0  0  0  0  0  0  0  0  0  0  0  0
   -0.5794    0.4126   -1.4895 H   0  0  0  0  0  0  0  0  0  0  0  0
    0.8290    1.2692   -0.0848 C   0  0  0  0  0  0  0  0  0  0  0  0
    0.7079    2.0354    0.6891 H   0  0  0  0  0  0  0  0  0  0  0  0
    1.7571    0.1802    0.4879 C   0  0  0  0  0  0  0  0  0  0  0  0
    2.7867    0.4349    0.1999 H   0  0  0  0  0  0  0  0  0  0  0  0
    1.3920   -1.1655   -0.1570 C   0  0  0  0  0  0  0  0  0  0  0  0
    2.0403   -1.9696    0.2254 H   0  0  0  0  0  0  0  0  0  0  0  0
    0.0910   -1.5736    0.1766 O   0  0  0  0  0  0  0  0  0  0  0  0
    1.5605   -1.0156   -1.5358 O   0  0  0  0  0  0  0  0  0  0  0  0
    1.6104    0.1497    1.8822 O   0  0  0  0  0  0  0  0  0  0  0  0
    1.4073    1.9126   -1.1906 O   0  0  0  0  0  0  0  0  0  0  0  0
   -1.5752    1.6511   -0.1697 O   0  0  0  0  0  0  0  0  0  0  0  0
   -3.3337   -0.4684    0.5975 O   0  0  0  0  0  0  0  0  0  0  0  0
   -2.2051   -2.1984    0.5010 H   0  0  0  0  0  0  0  0  0  0  0  0
   -2.3754   -1.2288   -0.9810 H   0  0  0  0  0  0  0  0  0  0  0  0
    1.3904   -1.8580   -1.9850 H   0  0  0  0  0  0  0  0  0  0  0  0
    2.2755   -0.4326    2.2775 H   0  0  0  0  0  0  0  0  0  0  0  0
    1.6068    1.2460   -1.8672 H   0  0  0  0  0  0  0  0  0  0  0  0
   -1.4384    2.4217   -0.7388 H   0  0  0  0  0  0  0  0  0  0  0  0
   -3.2285   -0.3276    1.5487 H   0  0  0  0  0  0  0  0  0  0  0  0
  1  2  1  0  0  0  0
  2  3  1  0  0  0  0
  2  4  1  0  0  0  0
  4  5  1  0  0  0  0
  4  6  1  0  0  0  0
  6  7  1  0  0  0  0
  6  8  1  0  0  0  0
  8  9  1  0  0  0  0
  8 10  1  0  0  0  0
 10 11  1  0  0  0  0
  2 12  1  0  0  0  0
 10 12  1  0  0  0  0
 10 13  1  0  0  0  0
  8 14  1  0  0  0  0
  6 15  1  0  0  0  0
  4 16  1  0  0  0  0
  1 17  1  0  0  0  0
  1 18  1  0  0  0  0
  1 19  1  0  0  0  0
 13 20  1  0  0  0  0
 14 21  1  0  0  0  0
 15 22  1  0  0  0  0
 16 23  1  0  0  0  0
 17 24  1  0  0  0  0
M  END
