 xtb: 6.7.1 (edcfbbe)
          04062511353D

 27 27  0     0  0            999 V2000
    3.3025   -0.3772    0.7974 C   0  0  0  0  0  0  0  0  0  0  0  0
    1.9373   -0.2430    0.2198 C   0  0  0  0  0  0  0  0  0  0  0  0
    1.3468    0.9495    0.0445 C   0  0  0  0  0  0  0  0  0  0  0  0
    0.0095    1.1168   -0.4912 C   0  0  0  0  0  0  0  0  0  0  0  0
   -0.4612    2.2290   -0.7179 O   0  0  0  0  0  0  0  0  0  0  0  0
   -0.7939   -0.1426   -0.7598 C   0  0  0  0  0  0  0  0  0  0  0  0
   -1.4622    0.1025   -1.5922 H   0  0  0  0  0  0  0  0  0  0  0  0
    0.1477   -1.2691   -1.1902 C   0  0  0  0  0  0  0  0  0  0  0  0
    1.2440   -1.5119   -0.1574 C   0  0  0  0  0  0  0  0  0  0  0  0
   -1.6829   -0.5479    0.4534 C   0  0  0  0  0  0  0  0  0  0  0  0
   -1.5696    0.4092    1.6394 C   0  0  0  0  0  0  0  0  0  0  0  0
   -3.1428   -0.6570    0.0168 C   0  0  0  0  0  0  0  0  0  0  0  0
    3.6716    0.5735    1.1699 H   0  0  0  0  0  0  0  0  0  0  0  0
    3.9875   -0.7455    0.0348 H   0  0  0  0  0  0  0  0  0  0  0  0
    3.2949   -1.1050    1.6063 H   0  0  0  0  0  0  0  0  0  0  0  0
    1.8595    1.8674    0.2991 H   0  0  0  0  0  0  0  0  0  0  0  0
   -0.4272   -2.1819   -1.3534 H   0  0  0  0  0  0  0  0  0  0  0  0
    0.6121   -0.9900   -2.1392 H   0  0  0  0  0  0  0  0  0  0  0  0
    0.8188   -1.9458    0.7521 H   0  0  0  0  0  0  0  0  0  0  0  0
    1.9705   -2.2283   -0.5439 H   0  0  0  0  0  0  0  0  0  0  0  0
   -1.3618   -1.5368    0.7927 H   0  0  0  0  0  0  0  0  0  0  0  0
   -0.5493    0.4544    2.0139 H   0  0  0  0  0  0  0  0  0  0  0  0
   -2.2181    0.0752    2.4463 H   0  0  0  0  0  0  0  0  0  0  0  0
   -1.8723    1.4148    1.3525 H   0  0  0  0  0  0  0  0  0  0  0  0
   -3.2473   -1.3603   -0.8060 H   0  0  0  0  0  0  0  0  0  0  0  0
   -3.5127    0.3141   -0.3064 H   0  0  0  0  0  0  0  0  0  0  0  0
   -3.7601   -1.0004    0.8437 H   0  0  0  0  0  0  0  0  0  0  0  0
  1  2  1  0  0  0  0
  2  3  2  0  0  0  0
  3  4  1  0  0  0  0
  4  5  2  0  0  0  0
  4  6  1  0  0  0  0
  6  7  1  0  0  0  0
  6  8  1  0  0  0  0
  2  9  1  0  0  0  0
  8  9  1  0  0  0  0
  6 10  1  0  0  0  0
 10 11  1  0  0  0  0
 10 12  1  0  0  0  0
  1 13  1  0  0  0  0
  1 14  1  0  0  0  0
  1 15  1  0  0  0  0
  3 16  1  0  0  0  0
  8 17  1  0  0  0  0
  8 18  1  0  0  0  0
  9 19  1  0  0  0  0
  9 20  1  0  0  0  0
 10 21  1  0  0  0  0
 11 22  1  0  0  0  0
 11 23  1  0  0  0  0
 11 24  1  0  0  0  0
 12 25  1  0  0  0  0
 12 26  1  0  0  0  0
 12 27  1  0  0  0  0
M  END
