 xtb: 6.7.1 (edcfbbe)
          04062518003D

 24 24  0     0  0            999 V2000
   -2.4596   -0.5790   -0.1327 C   0  0  0  0  0  0  0  0  0  0  0  0
   -1.0280   -0.2047    0.2670 C   0  0  0  0  0  0  0  0  0  0  0  0
   -0.9110   -0.2750    1.3580 H   0  0  0  0  0  0  0  0  0  0  0  0
   -0.6499    1.2189   -0.1884 C   0  0  0  0  0  0  0  0  0  0  0  0
   -1.1384    1.4182   -1.1557 H   0  0  0  0  0  0  0  0  0  0  0  0
    0.8787    1.3220   -0.3938 C   0  0  0  0  0  0  0  0  0  0  0  0
    1.1733    2.3313   -0.0713 H   0  0  0  0  0  0  0  0  0  0  0  0
    1.6095    0.2855    0.4752 C   0  0  0  0  0  0  0  0  0  0  0  0
    2.6871    0.3481    0.2636 H   0  0  0  0  0  0  0  0  0  0  0  0
    1.1622   -1.1317    0.0538 C   0  0  0  0  0  0  0  0  0  0  0  0
    1.3004   -1.8015    0.9183 H   0  0  0  0  0  0  0  0  0  0  0  0
   -0.1861   -1.1612   -0.3624 O   0  0  0  0  0  0  0  0  0  0  0  0
    1.9343   -1.6425   -0.9690 O   0  0  0  0  0  0  0  0  0  0  0  0
    1.3544    0.4356    1.8451 O   0  0  0  0  0  0  0  0  0  0  0  0
    1.2710    1.0777   -1.7198 O   0  0  0  0  0  0  0  0  0  0  0  0
   -0.9998    2.2026    0.7517 O   0  0  0  0  0  0  0  0  0  0  0  0
   -2.8630   -1.8026    0.4237 O   0  0  0  0  0  0  0  0  0  0  0  0
   -2.5130   -0.6169   -1.2286 H   0  0  0  0  0  0  0  0  0  0  0  0
   -3.1642    0.1658    0.2405 H   0  0  0  0  0  0  0  0  0  0  0  0
    1.8176   -1.0776   -1.7537 H   0  0  0  0  0  0  0  0  0  0  0  0
    1.6469    1.3099    2.1425 H   0  0  0  0  0  0  0  0  0  0  0  0
    0.9723    1.7972   -2.2946 H   0  0  0  0  0  0  0  0  0  0  0  0
   -1.9451    2.1587    0.9494 H   0  0  0  0  0  0  0  0  0  0  0  0
   -2.2290   -2.4818    0.1517 H   0  0  0  0  0  0  0  0  0  0  0  0
  1  2  1  0  0  0  0
  2  3  1  0  0  0  0
  2  4  1  0  0  0  0
  4  5  1  0  0  0  0
  4  6  1  0  0  0  0
  6  7  1  0  0  0  0
  6  8  1  0  0  0  0
  8  9  1  0  0  0  0
  8 10  1  0  0  0  0
 10 11  1  0  0  0  0
  2 12  1  0  0  0  0
 10 12  1  0  0  0  0
 10 13  1  0  0  0  0
  8 14  1  0  0  0  0
  6 15  1  0  0  0  0
  4 16  1  0  0  0  0
  1 17  1  0  0  0  0
  1 18  1  0  0  0  0
  1 19  1  0  0  0  0
 13 20  1  0  0  0  0
 14 21  1  0  0  0  0
 15 22  1  0  0  0  0
 16 23  1  0  0  0  0
 17 24  1  0  0  0  0
M  END
