 xtb: 6.7.1 (edcfbbe)
          04062518003D

 24 24  0     0  0            999 V2000
   -2.2538   -0.9758    0.7695 C   0  0  0  0  0  0  0  0  0  0  0  0
   -0.8141   -0.4505    0.7455 C   0  0  0  0  0  0  0  0  0  0  0  0
   -0.5301   -0.1545    1.7651 H   0  0  0  0  0  0  0  0  0  0  0  0
   -0.6499    0.7577   -0.1926 C   0  0  0  0  0  0  0  0  0  0  0  0
   -0.8276    0.4123   -1.2197 H   0  0  0  0  0  0  0  0  0  0  0  0
    0.7886    1.2994   -0.0955 C   0  0  0  0  0  0  0  0  0  0  0  0
    0.7805    2.1108    0.6404 H   0  0  0  0  0  0  0  0  0  0  0  0
    1.7716    0.1955    0.3609 C   0  0  0  0  0  0  0  0  0  0  0  0
    2.7423    0.3987   -0.1128 H   0  0  0  0  0  0  0  0  0  0  0  0
    1.2856   -1.1591   -0.1696 C   0  0  0  0  0  0  0  0  0  0  0  0
    1.9711   -1.9526    0.1677 H   0  0  0  0  0  0  0  0  0  0  0  0
    0.0279   -1.5234    0.3299 O   0  0  0  0  0  0  0  0  0  0  0  0
    1.2778   -1.0680   -1.5643 O   0  0  0  0  0  0  0  0  0  0  0  0
    1.9022    0.0934    1.7544 O   0  0  0  0  0  0  0  0  0  0  0  0
    1.2191    1.8826   -1.2974 O   0  0  0  0  0  0  0  0  0  0  0  0
   -1.5357    1.7972    0.1407 O   0  0  0  0  0  0  0  0  0  0  0  0
   -2.8382   -0.8538   -0.5092 O   0  0  0  0  0  0  0  0  0  0  0  0
   -2.8235   -0.3963    1.5061 H   0  0  0  0  0  0  0  0  0  0  0  0
   -2.2059   -2.0220    1.0875 H   0  0  0  0  0  0  0  0  0  0  0  0
    0.9839   -1.9106   -1.9438 H   0  0  0  0  0  0  0  0  0  0  0  0
    2.3634    0.8744    2.0945 H   0  0  0  0  0  0  0  0  0  0  0  0
    1.2544    1.1939   -1.9801 H   0  0  0  0  0  0  0  0  0  0  0  0
   -2.4185    1.5653   -0.1821 H   0  0  0  0  0  0  0  0  0  0  0  0
   -3.6610   -1.3612   -0.5328 H   0  0  0  0  0  0  0  0  0  0  0  0
  1  2  1  0  0  0  0
  2  3  1  0  0  0  0
  2  4  1  0  0  0  0
  4  5  1  0  0  0  0
  4  6  1  0  0  0  0
  6  7  1  0  0  0  0
  6  8  1  0  0  0  0
  8  9  1  0  0  0  0
  8 10  1  0  0  0  0
 10 11  1  0  0  0  0
  2 12  1  0  0  0  0
 10 12  1  0  0  0  0
 10 13  1  0  0  0  0
  8 14  1  0  0  0  0
  6 15  1  0  0  0  0
  4 16  1  0  0  0  0
  1 17  1  0  0  0  0
  1 18  1  0  0  0  0
  1 19  1  0  0  0  0
 13 20  1  0  0  0  0
 14 21  1  0  0  0  0
 15 22  1  0  0  0  0
 16 23  1  0  0  0  0
 17 24  1  0  0  0  0
M  END
