 xtb: 6.7.1 (edcfbbe)
          04032521403D

 14 13  0     0  0            999 V2000
   -1.4774   -1.4058    0.3665 C   0  0  0  0  0  0  0  0  0  0  0  0
   -1.0427   -0.0000    0.0000 C   0  0  0  0  0  0  0  0  0  0  0  0
   -1.4773    1.0203    1.0341 C   0  0  0  0  0  0  0  0  0  0  0  0
   -1.4774    0.3855   -1.4006 C   0  0  0  0  0  0  0  0  0  0  0  0
    1.0038   -0.0000   -0.0000 Br  0  0  0  0  0  0  0  0  0  0  0  0
   -1.1076   -1.6826    1.3514 H   0  0  0  0  0  0  0  0  0  0  0  0
   -2.5644   -1.4511    0.3782 H   0  0  0  0  0  0  0  0  0  0  0  0
   -1.1074   -2.1283   -0.3576 H   0  0  0  0  0  0  0  0  0  0  0  0
   -1.1069    0.7547    2.0219 H   0  0  0  0  0  0  0  0  0  0  0  0
   -1.1077    2.0117    0.7812 H   0  0  0  0  0  0  0  0  0  0  0  0
   -2.5643    1.0529    1.0679 H   0  0  0  0  0  0  0  0  0  0  0  0
   -2.5645    0.3985   -1.4456 H   0  0  0  0  0  0  0  0  0  0  0  0
   -1.1080   -0.3292   -2.1328 H   0  0  0  0  0  0  0  0  0  0  0  0
   -1.1071    1.3737   -1.6644 H   0  0  0  0  0  0  0  0  0  0  0  0
  1  2  1  0  0  0  0
  2  3  1  0  0  0  0
  2  4  1  0  0  0  0
  2  5  1  0  0  0  0
  1  6  1  0  0  0  0
  1  7  1  0  0  0  0
  1  8  1  0  0  0  0
  3  9  1  0  0  0  0
  3 10  1  0  0  0  0
  3 11  1  0  0  0  0
  4 12  1  0  0  0  0
  4 13  1  0  0  0  0
  4 14  1  0  0  0  0
M  END
