 xtb: 6.7.1 (edcfbbe)
          04052503093D

 19 19  0     0  0            999 V2000
   -2.8132    1.4010   -0.0964 C   0  0  0  0  0  0  0  0  0  0  0  0
   -2.3781   -0.0513    0.0502 C   0  0  0  0  0  0  0  0  0  0  0  0
   -0.8902   -0.2897    0.0449 C   0  0  0  0  0  0  0  0  0  0  0  0
   -0.4294   -1.6010    0.1547 C   0  0  0  0  0  0  0  0  0  0  0  0
    0.9230   -1.8763    0.1555 C   0  0  0  0  0  0  0  0  0  0  0  0
    1.8489   -0.8523    0.0465 C   0  0  0  0  0  0  0  0  0  0  0  0
    1.4026    0.4568   -0.0632 C   0  0  0  0  0  0  0  0  0  0  0  0
    0.0372    0.7315   -0.0631 C   0  0  0  0  0  0  0  0  0  0  0  0
    2.2577    1.5128   -0.1744 O   0  0  0  0  0  0  0  0  0  0  0  0
   -2.4339    2.0039    0.7251 H   0  0  0  0  0  0  0  0  0  0  0  0
   -3.8990    1.4598   -0.0888 H   0  0  0  0  0  0  0  0  0  0  0  0
   -2.4557    1.8191   -1.0343 H   0  0  0  0  0  0  0  0  0  0  0  0
   -2.8163   -0.6390   -0.7616 H   0  0  0  0  0  0  0  0  0  0  0  0
   -2.7806   -0.4520    0.9851 H   0  0  0  0  0  0  0  0  0  0  0  0
   -1.1431   -2.4072    0.2399 H   0  0  0  0  0  0  0  0  0  0  0  0
    1.2665   -2.8964    0.2410 H   0  0  0  0  0  0  0  0  0  0  0  0
    2.9069   -1.0711    0.0466 H   0  0  0  0  0  0  0  0  0  0  0  0
   -0.2610    1.7633   -0.1500 H   0  0  0  0  0  0  0  0  0  0  0  0
    3.1766    1.2062   -0.1643 H   0  0  0  0  0  0  0  0  0  0  0  0
  1  2  1  0  0  0  0
  2  3  1  0  0  0  0
  3  4  4  0  0  0  0
  4  5  4  0  0  0  0
  5  6  4  0  0  0  0
  6  7  4  0  0  0  0
  3  8  4  0  0  0  0
  7  8  4  0  0  0  0
  7  9  1  0  0  0  0
  1 10  1  0  0  0  0
  1 11  1  0  0  0  0
  1 12  1  0  0  0  0
  2 13  1  0  0  0  0
  2 14  1  0  0  0  0
  4 15  1  0  0  0  0
  5 16  1  0  0  0  0
  6 17  1  0  0  0  0
  8 18  1  0  0  0  0
  9 19  1  0  0  0  0
M  END
