 xtb: 6.7.1 (edcfbbe)
          04062518003D

 24 24  0     0  0            999 V2000
   -2.5264   -0.6269   -0.1292 C   0  0  0  0  0  0  0  0  0  0  0  0
   -1.1956   -0.4378    0.6174 C   0  0  0  0  0  0  0  0  0  0  0  0
   -1.3049   -0.7667    1.6633 H   0  0  0  0  0  0  0  0  0  0  0  0
   -0.7150    1.0302    0.6664 C   0  0  0  0  0  0  0  0  0  0  0  0
   -1.5691    1.6866    0.4636 H   0  0  0  0  0  0  0  0  0  0  0  0
    0.3691    1.2887   -0.3949 C   0  0  0  0  0  0  0  0  0  0  0  0
    0.7769    2.2998   -0.2548 H   0  0  0  0  0  0  0  0  0  0  0  0
    1.5579    0.3178   -0.1661 C   0  0  0  0  0  0  0  0  0  0  0  0
    2.0808    0.1751   -1.1169 H   0  0  0  0  0  0  0  0  0  0  0  0
    1.0659   -1.0615    0.3197 C   0  0  0  0  0  0  0  0  0  0  0  0
    1.1362   -1.0919    1.4276 H   0  0  0  0  0  0  0  0  0  0  0  0
   -0.2751   -1.2864   -0.0500 O   0  0  0  0  0  0  0  0  0  0  0  0
    1.8403   -2.0443   -0.2607 O   0  0  0  0  0  0  0  0  0  0  0  0
    2.4944    0.8670    0.7222 O   0  0  0  0  0  0  0  0  0  0  0  0
   -0.1336    1.2534   -1.7014 O   0  0  0  0  0  0  0  0  0  0  0  0
   -0.1964    1.2665    1.9614 O   0  0  0  0  0  0  0  0  0  0  0  0
   -2.3599   -0.4718   -1.5189 O   0  0  0  0  0  0  0  0  0  0  0  0
   -3.2479    0.1259    0.1901 H   0  0  0  0  0  0  0  0  0  0  0  0
   -2.9197   -1.6213    0.0994 H   0  0  0  0  0  0  0  0  0  0  0  0
    1.4763   -2.9197   -0.0519 H   0  0  0  0  0  0  0  0  0  0  0  0
    2.0618    1.0039    1.5814 H   0  0  0  0  0  0  0  0  0  0  0  0
   -0.9033    0.6484   -1.7578 H   0  0  0  0  0  0  0  0  0  0  0  0
   -0.2585    2.2083    2.1742 H   0  0  0  0  0  0  0  0  0  0  0  0
   -1.8632   -1.2352   -1.8512 H   0  0  0  0  0  0  0  0  0  0  0  0
  1  2  1  0  0  0  0
  2  3  1  0  0  0  0
  2  4  1  0  0  0  0
  4  5  1  0  0  0  0
  4  6  1  0  0  0  0
  6  7  1  0  0  0  0
  6  8  1  0  0  0  0
  8  9  1  0  0  0  0
  8 10  1  0  0  0  0
 10 11  1  0  0  0  0
  2 12  1  0  0  0  0
 10 12  1  0  0  0  0
 10 13  1  0  0  0  0
  8 14  1  0  0  0  0
  6 15  1  0  0  0  0
  4 16  1  0  0  0  0
  1 17  1  0  0  0  0
  1 18  1  0  0  0  0
  1 19  1  0  0  0  0
 13 20  1  0  0  0  0
 14 21  1  0  0  0  0
 15 22  1  0  0  0  0
 16 23  1  0  0  0  0
 17 24  1  0  0  0  0
M  END
