 xtb: 6.7.1 (edcfbbe)
          04032521523D

 16 16  0     0  0            999 V2000
    0.7328   -1.1978    0.2319 C   0  0  0  0  0  0  0  0  0  0  0  0
   -0.7330   -1.1979   -0.2318 C   0  0  0  0  0  0  0  0  0  0  0  0
   -1.4477    0.0000    0.1921 N   0  0  0  0  0  0  0  0  0  0  0  0
   -0.7330    1.1981   -0.2313 C   0  0  0  0  0  0  0  0  0  0  0  0
    0.7332    1.1978    0.2314 C   0  0  0  0  0  0  0  0  0  0  0  0
    1.4478   -0.0002   -0.1923 N   0  0  0  0  0  0  0  0  0  0  0  0
    1.2579   -2.0715   -0.1572 H   0  0  0  0  0  0  0  0  0  0  0  0
    0.7706   -1.2286    1.3263 H   0  0  0  0  0  0  0  0  0  0  0  0
   -0.7709   -1.2293   -1.3261 H   0  0  0  0  0  0  0  0  0  0  0  0
   -1.2582   -2.0714    0.1579 H   0  0  0  0  0  0  0  0  0  0  0  0
   -1.5130   -0.0003    1.2068 H   0  0  0  0  0  0  0  0  0  0  0  0
   -0.7718    1.2304   -1.3256 H   0  0  0  0  0  0  0  0  0  0  0  0
   -1.2577    2.0714    0.1594 H   0  0  0  0  0  0  0  0  0  0  0  0
    1.2580    2.0710   -0.1592 H   0  0  0  0  0  0  0  0  0  0  0  0
    0.7720    1.2299    1.3258 H   0  0  0  0  0  0  0  0  0  0  0  0
    1.5126   -0.0002   -1.2071 H   0  0  0  0  0  0  0  0  0  0  0  0
  1  2  1  0  0  0  0
  2  3  1  0  0  0  0
  3  4  1  0  0  0  0
  4  5  1  0  0  0  0
  1  6  1  0  0  0  0
  5  6  1  0  0  0  0
  1  7  1  0  0  0  0
  1  8  1  0  0  0  0
  2  9  1  0  0  0  0
  2 10  1  0  0  0  0
  3 11  1  0  0  0  0
  4 12  1  0  0  0  0
  4 13  1  0  0  0  0
  5 14  1  0  0  0  0
  5 15  1  0  0  0  0
  6 16  1  0  0  0  0
M  END
