 xtb: 6.7.1 (edcfbbe)
          04062518003D

 24 24  0     0  0            999 V2000
   -2.4195   -0.7088   -0.0041 C   0  0  0  0  0  0  0  0  0  0  0  0
   -0.9992   -0.2610    0.3566 C   0  0  0  0  0  0  0  0  0  0  0  0
   -0.9877    0.0933    1.3978 H   0  0  0  0  0  0  0  0  0  0  0  0
   -0.5079    0.8697   -0.5518 C   0  0  0  0  0  0  0  0  0  0  0  0
   -0.3841    0.4796   -1.5697 H   0  0  0  0  0  0  0  0  0  0  0  0
    0.8675    1.3404   -0.0340 C   0  0  0  0  0  0  0  0  0  0  0  0
    0.6904    1.9708    0.8487 H   0  0  0  0  0  0  0  0  0  0  0  0
    1.7182    0.1495    0.4441 C   0  0  0  0  0  0  0  0  0  0  0  0
    2.7269    0.2902    0.0327 H   0  0  0  0  0  0  0  0  0  0  0  0
    1.1798   -1.1841   -0.0990 C   0  0  0  0  0  0  0  0  0  0  0  0
    1.7291   -2.0158    0.3721 H   0  0  0  0  0  0  0  0  0  0  0  0
   -0.1600   -1.4111    0.2535 O   0  0  0  0  0  0  0  0  0  0  0  0
    1.3686   -1.1977   -1.4795 O   0  0  0  0  0  0  0  0  0  0  0  0
    1.7200    0.1608    1.8483 O   0  0  0  0  0  0  0  0  0  0  0  0
    1.5984    2.0349   -1.0157 O   0  0  0  0  0  0  0  0  0  0  0  0
   -1.4542    1.9126   -0.5146 O   0  0  0  0  0  0  0  0  0  0  0  0
   -2.9120   -1.6742    0.8881 O   0  0  0  0  0  0  0  0  0  0  0  0
   -2.4202   -1.0975   -1.0312 H   0  0  0  0  0  0  0  0  0  0  0  0
   -3.0889    0.1498    0.0596 H   0  0  0  0  0  0  0  0  0  0  0  0
    1.1317   -2.0673   -1.8386 H   0  0  0  0  0  0  0  0  0  0  0  0
    2.3631   -0.4775    2.1898 H   0  0  0  0  0  0  0  0  0  0  0  0
    1.2514    2.9332   -1.1079 H   0  0  0  0  0  0  0  0  0  0  0  0
   -1.3745    2.4565   -1.3103 H   0  0  0  0  0  0  0  0  0  0  0  0
   -2.2662   -2.3939    0.9406 H   0  0  0  0  0  0  0  0  0  0  0  0
  1  2  1  0  0  0  0
  2  3  1  0  0  0  0
  2  4  1  0  0  0  0
  4  5  1  0  0  0  0
  4  6  1  0  0  0  0
  6  7  1  0  0  0  0
  6  8  1  0  0  0  0
  8  9  1  0  0  0  0
  8 10  1  0  0  0  0
 10 11  1  0  0  0  0
  2 12  1  0  0  0  0
 10 12  1  0  0  0  0
 10 13  1  0  0  0  0
  8 14  1  0  0  0  0
  6 15  1  0  0  0  0
  4 16  1  0  0  0  0
  1 17  1  0  0  0  0
  1 18  1  0  0  0  0
  1 19  1  0  0  0  0
 13 20  1  0  0  0  0
 14 21  1  0  0  0  0
 15 22  1  0  0  0  0
 16 23  1  0  0  0  0
 17 24  1  0  0  0  0
M  END
