 xtb: 6.7.1 (edcfbbe)
          04062518003D

 24 24  0     0  0            999 V2000
   -1.6363   -1.3146   -0.6495 C   0  0  0  0  0  0  0  0  0  0  0  0
   -1.1483   -0.5056    0.5617 C   0  0  0  0  0  0  0  0  0  0  0  0
   -1.9405   -0.5383    1.3179 H   0  0  0  0  0  0  0  0  0  0  0  0
   -0.8807    0.9714    0.2040 C   0  0  0  0  0  0  0  0  0  0  0  0
   -1.2905    1.1767   -0.7902 H   0  0  0  0  0  0  0  0  0  0  0  0
    0.6291    1.2835    0.1857 C   0  0  0  0  0  0  0  0  0  0  0  0
    0.9825    1.4449    1.2172 H   0  0  0  0  0  0  0  0  0  0  0  0
    1.4281    0.1128   -0.3910 C   0  0  0  0  0  0  0  0  0  0  0  0
    1.1039   -0.0553   -1.4250 H   0  0  0  0  0  0  0  0  0  0  0  0
    1.1590   -1.1595    0.4424 C   0  0  0  0  0  0  0  0  0  0  0  0
    1.9516   -1.2389    1.2024 H   0  0  0  0  0  0  0  0  0  0  0  0
   -0.0274   -1.1048    1.1962 O   0  0  0  0  0  0  0  0  0  0  0  0
    1.1854   -2.2516   -0.4242 O   0  0  0  0  0  0  0  0  0  0  0  0
    2.7926    0.4416   -0.3421 O   0  0  0  0  0  0  0  0  0  0  0  0
    0.8902    2.4201   -0.5979 O   0  0  0  0  0  0  0  0  0  0  0  0
   -1.5518    1.8658    1.0587 O   0  0  0  0  0  0  0  0  0  0  0  0
   -2.8557   -0.7561   -1.0775 O   0  0  0  0  0  0  0  0  0  0  0  0
   -1.7697   -2.3559   -0.3312 H   0  0  0  0  0  0  0  0  0  0  0  0
   -0.8863   -1.2822   -1.4485 H   0  0  0  0  0  0  0  0  0  0  0  0
    1.1745   -3.0807    0.0783 H   0  0  0  0  0  0  0  0  0  0  0  0
    3.2884   -0.1194   -0.9549 H   0  0  0  0  0  0  0  0  0  0  0  0
    0.3493    3.1536   -0.2685 H   0  0  0  0  0  0  0  0  0  0  0  0
   -1.2941    1.6974    1.9771 H   0  0  0  0  0  0  0  0  0  0  0  0
   -3.1976   -1.2698   -1.8228 H   0  0  0  0  0  0  0  0  0  0  0  0
  1  2  1  0  0  0  0
  2  3  1  0  0  0  0
  2  4  1  0  0  0  0
  4  5  1  0  0  0  0
  4  6  1  0  0  0  0
  6  7  1  0  0  0  0
  6  8  1  0  0  0  0
  8  9  1  0  0  0  0
  8 10  1  0  0  0  0
 10 11  1  0  0  0  0
  2 12  1  0  0  0  0
 10 12  1  0  0  0  0
 10 13  1  0  0  0  0
  8 14  1  0  0  0  0
  6 15  1  0  0  0  0
  4 16  1  0  0  0  0
  1 17  1  0  0  0  0
  1 18  1  0  0  0  0
  1 19  1  0  0  0  0
 13 20  1  0  0  0  0
 14 21  1  0  0  0  0
 15 22  1  0  0  0  0
 16 23  1  0  0  0  0
 17 24  1  0  0  0  0
M  END
