 xtb: 6.7.1 (edcfbbe)
          04062508313D

 24 24  0     0  0            999 V2000
   -3.1684   -0.0193    1.0195 C   0  0  0  0  0  0  0  0  0  0  0  0
   -1.7594    0.0087    0.7811 O   0  0  0  0  0  0  0  0  0  0  0  0
   -1.3479   -0.1286   -0.4726 C   0  0  0  0  0  0  0  0  0  0  0  0
   -2.1113   -0.2753   -1.4062 O   0  0  0  0  0  0  0  0  0  0  0  0
    0.1553   -0.0765   -0.5934 C   0  0  0  0  0  0  0  0  0  0  0  0
    0.7968   -1.2000    0.2304 C   0  0  0  0  0  0  0  0  0  0  0  0
    2.3164   -1.1383    0.1102 C   0  0  0  0  0  0  0  0  0  0  0  0
    2.8356    0.2178    0.5781 C   0  0  0  0  0  0  0  0  0  0  0  0
    2.1951    1.3396   -0.2335 C   0  0  0  0  0  0  0  0  0  0  0  0
    0.6751    1.2855   -0.1152 C   0  0  0  0  0  0  0  0  0  0  0  0
   -3.2866    0.1073    2.0909 H   0  0  0  0  0  0  0  0  0  0  0  0
   -3.5839   -0.9716    0.6878 H   0  0  0  0  0  0  0  0  0  0  0  0
   -3.6551    0.7887    0.4720 H   0  0  0  0  0  0  0  0  0  0  0  0
    0.3976   -0.2113   -1.6521 H   0  0  0  0  0  0  0  0  0  0  0  0
    0.5025   -1.0833    1.2748 H   0  0  0  0  0  0  0  0  0  0  0  0
    0.4311   -2.1668   -0.1219 H   0  0  0  0  0  0  0  0  0  0  0  0
    2.7605   -1.9351    0.7085 H   0  0  0  0  0  0  0  0  0  0  0  0
    2.6040   -1.2987   -0.9309 H   0  0  0  0  0  0  0  0  0  0  0  0
    2.5949    0.3525    1.6344 H   0  0  0  0  0  0  0  0  0  0  0  0
    3.9207    0.2562    0.4719 H   0  0  0  0  0  0  0  0  0  0  0  0
    2.5520    2.3077    0.1206 H   0  0  0  0  0  0  0  0  0  0  0  0
    2.4804    1.2386   -1.2826 H   0  0  0  0  0  0  0  0  0  0  0  0
    0.3789    1.4299    0.9252 H   0  0  0  0  0  0  0  0  0  0  0  0
    0.2230    2.0798   -0.7131 H   0  0  0  0  0  0  0  0  0  0  0  0
  1  2  1  0  0  0  0
  2  3  1  0  0  0  0
  3  4  2  0  0  0  0
  3  5  1  0  0  0  0
  5  6  1  0  0  0  0
  6  7  1  0  0  0  0
  7  8  1  0  0  0  0
  8  9  1  0  0  0  0
  5 10  1  0  0  0  0
  9 10  1  0  0  0  0
  1 11  1  0  0  0  0
  1 12  1  0  0  0  0
  1 13  1  0  0  0  0
  5 14  1  0  0  0  0
  6 15  1  0  0  0  0
  6 16  1  0  0  0  0
  7 17  1  0  0  0  0
  7 18  1  0  0  0  0
  8 19  1  0  0  0  0
  8 20  1  0  0  0  0
  9 21  1  0  0  0  0
  9 22  1  0  0  0  0
 10 23  1  0  0  0  0
 10 24  1  0  0  0  0
M  END
