 xtb: 6.7.1 (edcfbbe)
          04062518003D

 24 24  0     0  0            999 V2000
   -2.3254   -0.8375   -0.6143 C   0  0  0  0  0  0  0  0  0  0  0  0
   -1.0476   -0.5628    0.1947 C   0  0  0  0  0  0  0  0  0  0  0  0
   -1.1631   -0.9592    1.2170 H   0  0  0  0  0  0  0  0  0  0  0  0
   -0.7409    0.9535    0.3105 C   0  0  0  0  0  0  0  0  0  0  0  0
   -1.5775    1.5150   -0.1204 H   0  0  0  0  0  0  0  0  0  0  0  0
    0.5502    1.2776   -0.4663 C   0  0  0  0  0  0  0  0  0  0  0  0
    0.7964    2.3325   -0.3021 H   0  0  0  0  0  0  0  0  0  0  0  0
    1.7060    0.3993    0.0724 C   0  0  0  0  0  0  0  0  0  0  0  0
    2.5426    0.4505   -0.6354 H   0  0  0  0  0  0  0  0  0  0  0  0
    1.2468   -1.0806    0.1791 C   0  0  0  0  0  0  0  0  0  0  0  0
    1.1660   -1.3281    1.2507 H   0  0  0  0  0  0  0  0  0  0  0  0
    0.0010   -1.2624   -0.4589 O   0  0  0  0  0  0  0  0  0  0  0  0
    2.1497   -1.9745   -0.3571 O   0  0  0  0  0  0  0  0  0  0  0  0
    2.1033    0.8048    1.3632 O   0  0  0  0  0  0  0  0  0  0  0  0
    0.3988    1.1349   -1.8539 O   0  0  0  0  0  0  0  0  0  0  0  0
   -0.6516    1.3727    1.6499 O   0  0  0  0  0  0  0  0  0  0  0  0
   -3.4518   -0.1904   -0.0900 O   0  0  0  0  0  0  0  0  0  0  0  0
   -2.4716   -1.9227   -0.6753 H   0  0  0  0  0  0  0  0  0  0  0  0
   -2.2012   -0.4460   -1.6262 H   0  0  0  0  0  0  0  0  0  0  0  0
    2.0674   -1.9883   -1.3234 H   0  0  0  0  0  0  0  0  0  0  0  0
    2.6875    1.5748    1.3088 H   0  0  0  0  0  0  0  0  0  0  0  0
    0.1408    0.2194   -2.0437 H   0  0  0  0  0  0  0  0  0  0  0  0
    0.2250    1.1346    2.0014 H   0  0  0  0  0  0  0  0  0  0  0  0
   -3.6539   -0.5383    0.7900 H   0  0  0  0  0  0  0  0  0  0  0  0
  1  2  1  0  0  0  0
  2  3  1  0  0  0  0
  2  4  1  0  0  0  0
  4  5  1  0  0  0  0
  4  6  1  0  0  0  0
  6  7  1  0  0  0  0
  6  8  1  0  0  0  0
  8  9  1  0  0  0  0
  8 10  1  0  0  0  0
 10 11  1  0  0  0  0
  2 12  1  0  0  0  0
 10 12  1  0  0  0  0
 10 13  1  0  0  0  0
  8 14  1  0  0  0  0
  6 15  1  0  0  0  0
  4 16  1  0  0  0  0
  1 17  1  0  0  0  0
  1 18  1  0  0  0  0
  1 19  1  0  0  0  0
 13 20  1  0  0  0  0
 14 21  1  0  0  0  0
 15 22  1  0  0  0  0
 16 23  1  0  0  0  0
 17 24  1  0  0  0  0
M  END
