 xtb: 6.7.1 (edcfbbe)
          04052517383D

 24 24  0     0  0            999 V2000
   -3.6545    0.1852    0.1235 C   0  0  0  0  0  0  0  0  0  0  0  0
   -2.1639    0.0678    0.0238 C   0  0  0  0  0  0  0  0  0  0  0  0
   -1.4757   -0.9888    0.6004 C   0  0  0  0  0  0  0  0  0  0  0  0
   -0.0978   -1.0809    0.5085 C   0  0  0  0  0  0  0  0  0  0  0  0
    0.6515   -0.1188   -0.1600 C   0  0  0  0  0  0  0  0  0  0  0  0
   -0.0464    0.9329   -0.7477 C   0  0  0  0  0  0  0  0  0  0  0  0
   -1.4222    1.0255   -0.6562 C   0  0  0  0  0  0  0  0  0  0  0  0
    2.1601   -0.2318   -0.2794 C   0  0  0  0  0  0  0  0  0  0  0  0
    2.7838   -0.9812    0.9020 C   0  0  0  0  0  0  0  0  0  0  0  0
    2.8387    1.1347   -0.4143 C   0  0  0  0  0  0  0  0  0  0  0  0
   -3.9252    1.0828    0.6780 H   0  0  0  0  0  0  0  0  0  0  0  0
   -4.0963    0.2611   -0.8687 H   0  0  0  0  0  0  0  0  0  0  0  0
   -4.0785   -0.6775    0.6307 H   0  0  0  0  0  0  0  0  0  0  0  0
   -2.0220   -1.7559    1.1313 H   0  0  0  0  0  0  0  0  0  0  0  0
    0.3867   -1.9263    0.9700 H   0  0  0  0  0  0  0  0  0  0  0  0
    0.4807    1.7000   -1.2920 H   0  0  0  0  0  0  0  0  0  0  0  0
   -1.9307    1.8578   -1.1224 H   0  0  0  0  0  0  0  0  0  0  0  0
    2.3727   -0.8053   -1.1923 H   0  0  0  0  0  0  0  0  0  0  0  0
    3.8684   -0.9377    0.8334 H   0  0  0  0  0  0  0  0  0  0  0  0
    2.4971   -2.0289    0.9096 H   0  0  0  0  0  0  0  0  0  0  0  0
    2.4794   -0.5262    1.8419 H   0  0  0  0  0  0  0  0  0  0  0  0
    3.9190    1.0130   -0.3831 H   0  0  0  0  0  0  0  0  0  0  0  0
    2.5415    1.7872    0.4037 H   0  0  0  0  0  0  0  0  0  0  0  0
    2.5897    1.6157   -1.3559 H   0  0  0  0  0  0  0  0  0  0  0  0
  1  2  1  0  0  0  0
  2  3  4  0  0  0  0
  3  4  4  0  0  0  0
  4  5  4  0  0  0  0
  5  6  4  0  0  0  0
  2  7  4  0  0  0  0
  6  7  4  0  0  0  0
  5  8  1  0  0  0  0
  8  9  1  0  0  0  0
  8 10  1  0  0  0  0
  1 11  1  0  0  0  0
  1 12  1  0  0  0  0
  1 13  1  0  0  0  0
  3 14  1  0  0  0  0
  4 15  1  0  0  0  0
  6 16  1  0  0  0  0
  7 17  1  0  0  0  0
  8 18  1  0  0  0  0
  9 19  1  0  0  0  0
  9 20  1  0  0  0  0
  9 21  1  0  0  0  0
 10 22  1  0  0  0  0
 10 23  1  0  0  0  0
 10 24  1  0  0  0  0
M  END
