 xtb: 6.7.1 (edcfbbe)
          04062520053D

 27 27  0     0  0            999 V2000
   -3.3346    0.5032   -0.2243 C   0  0  0  0  0  0  0  0  0  0  0  0
   -1.8733    0.4811    0.0876 C   0  0  0  0  0  0  0  0  0  0  0  0
   -1.1044    1.5590    0.1875 C   0  0  0  0  0  0  0  0  0  0  0  0
    0.3511    1.3954    0.4803 C   0  0  0  0  0  0  0  0  0  0  0  0
    0.9782    0.3441   -0.4657 C   0  0  0  0  0  0  0  0  0  0  0  0
    1.0705    0.8150   -1.4482 H   0  0  0  0  0  0  0  0  0  0  0  0
    0.0701   -0.8909   -0.6150 C   0  0  0  0  0  0  0  0  0  0  0  0
   -1.1789   -0.8480    0.2818 C   0  0  0  0  0  0  0  0  0  0  0  0
   -0.8548   -0.9246    1.3352 H   0  0  0  0  0  0  0  0  0  0  0  0
   -1.9641   -1.9764   -0.0489 O   0  0  0  0  0  0  0  0  0  0  0  0
    2.3680    0.0020    0.0249 C   0  0  0  0  0  0  0  0  0  0  0  0
    2.5790   -0.7652    1.0829 C   0  0  0  0  0  0  0  0  0  0  0  0
    3.4913    0.6238   -0.7463 C   0  0  0  0  0  0  0  0  0  0  0  0
   -3.6462    1.5075   -0.4967 H   0  0  0  0  0  0  0  0  0  0  0  0
   -3.9173    0.1835    0.6396 H   0  0  0  0  0  0  0  0  0  0  0  0
   -3.5490   -0.1750   -1.0489 H   0  0  0  0  0  0  0  0  0  0  0  0
   -1.5017    2.5537    0.0555 H   0  0  0  0  0  0  0  0  0  0  0  0
    0.8817    2.3416    0.3758 H   0  0  0  0  0  0  0  0  0  0  0  0
    0.4824    1.0510    1.5109 H   0  0  0  0  0  0  0  0  0  0  0  0
   -0.2913   -0.9716   -1.6414 H   0  0  0  0  0  0  0  0  0  0  0  0
    0.6198   -1.8057   -0.3929 H   0  0  0  0  0  0  0  0  0  0  0  0
   -2.7281   -2.0145    0.5412 H   0  0  0  0  0  0  0  0  0  0  0  0
    3.5723   -0.9868    1.4341 H   0  0  0  0  0  0  0  0  0  0  0  0
    1.7714   -1.2090    1.6401 H   0  0  0  0  0  0  0  0  0  0  0  0
    3.3737    1.7062   -0.7718 H   0  0  0  0  0  0  0  0  0  0  0  0
    4.4528    0.3846   -0.3008 H   0  0  0  0  0  0  0  0  0  0  0  0
    3.4805    0.2639   -1.7742 H   0  0  0  0  0  0  0  0  0  0  0  0
  1  2  1  0  0  0  0
  2  3  2  0  0  0  0
  3  4  1  0  0  0  0
  4  5  1  0  0  0  0
  5  6  1  0  0  0  0
  5  7  1  0  0  0  0
  2  8  1  0  0  0  0
  7  8  1  0  0  0  0
  8  9  1  0  0  0  0
  8 10  1  0  0  0  0
  5 11  1  0  0  0  0
 11 12  2  0  0  0  0
 11 13  1  0  0  0  0
  1 14  1  0  0  0  0
  1 15  1  0  0  0  0
  1 16  1  0  0  0  0
  3 17  1  0  0  0  0
  4 18  1  0  0  0  0
  4 19  1  0  0  0  0
  7 20  1  0  0  0  0
  7 21  1  0  0  0  0
 10 22  1  0  0  0  0
 12 23  1  0  0  0  0
 12 24  1  0  0  0  0
 13 25  1  0  0  0  0
 13 26  1  0  0  0  0
 13 27  1  0  0  0  0
M  END
