 xtb: 6.7.1 (edcfbbe)
          04062518003D

 24 24  0     0  0            999 V2000
   -2.5613   -0.8831    0.2915 C   0  0  0  0  0  0  0  0  0  0  0  0
   -1.1259   -0.4472    0.6200 C   0  0  0  0  0  0  0  0  0  0  0  0
   -1.0105   -0.3861    1.7119 H   0  0  0  0  0  0  0  0  0  0  0  0
   -0.8246    0.9358    0.0262 C   0  0  0  0  0  0  0  0  0  0  0  0
   -1.0806    0.9153   -1.0461 H   0  0  0  0  0  0  0  0  0  0  0  0
    0.6666    1.2905    0.1860 C   0  0  0  0  0  0  0  0  0  0  0  0
    0.8844    1.4379    1.2504 H   0  0  0  0  0  0  0  0  0  0  0  0
    1.5384    0.1465   -0.3371 C   0  0  0  0  0  0  0  0  0  0  0  0
    1.3793    0.0372   -1.4241 H   0  0  0  0  0  0  0  0  0  0  0  0
    1.1027   -1.1650    0.3532 C   0  0  0  0  0  0  0  0  0  0  0  0
    1.2768   -1.0653    1.4380 H   0  0  0  0  0  0  0  0  0  0  0  0
   -0.2519   -1.4302    0.0923 O   0  0  0  0  0  0  0  0  0  0  0  0
    1.8628   -2.2383   -0.0714 O   0  0  0  0  0  0  0  0  0  0  0  0
    2.8881    0.4225   -0.0692 O   0  0  0  0  0  0  0  0  0  0  0  0
    0.9417    2.5296   -0.4171 O   0  0  0  0  0  0  0  0  0  0  0  0
   -1.6278    1.8738    0.6962 O   0  0  0  0  0  0  0  0  0  0  0  0
   -2.7737   -1.0334   -1.0868 O   0  0  0  0  0  0  0  0  0  0  0  0
   -3.2402   -0.0998    0.6312 H   0  0  0  0  0  0  0  0  0  0  0  0
   -2.7776   -1.8159    0.8240 H   0  0  0  0  0  0  0  0  0  0  0  0
    1.5231   -2.5635   -0.9202 H   0  0  0  0  0  0  0  0  0  0  0  0
    3.3994   -0.3982   -0.1537 H   0  0  0  0  0  0  0  0  0  0  0  0
    1.0152    2.4252   -1.3769 H   0  0  0  0  0  0  0  0  0  0  0  0
   -1.3061    2.7620    0.4740 H   0  0  0  0  0  0  0  0  0  0  0  0
   -2.2128   -1.7555   -1.4045 H   0  0  0  0  0  0  0  0  0  0  0  0
  1  2  1  0  0  0  0
  2  3  1  0  0  0  0
  2  4  1  0  0  0  0
  4  5  1  0  0  0  0
  4  6  1  0  0  0  0
  6  7  1  0  0  0  0
  6  8  1  0  0  0  0
  8  9  1  0  0  0  0
  8 10  1  0  0  0  0
 10 11  1  0  0  0  0
  2 12  1  0  0  0  0
 10 12  1  0  0  0  0
 10 13  1  0  0  0  0
  8 14  1  0  0  0  0
  6 15  1  0  0  0  0
  4 16  1  0  0  0  0
  1 17  1  0  0  0  0
  1 18  1  0  0  0  0
  1 19  1  0  0  0  0
 13 20  1  0  0  0  0
 14 21  1  0  0  0  0
 15 22  1  0  0  0  0
 16 23  1  0  0  0  0
 17 24  1  0  0  0  0
M  END
