 xtb: 6.7.1 (edcfbbe)
          04042521533D

 17 17  0     0  0            999 V2000
   -3.1843   -0.3313    0.0017 C   0  0  0  0  0  0  0  0  0  0  0  0
   -2.0888    0.5641   -0.0013 O   0  0  0  0  0  0  0  0  0  0  0  0
   -0.8239    0.0491   -0.0007 C   0  0  0  0  0  0  0  0  0  0  0  0
   -0.5142   -1.3050   -0.0003 C   0  0  0  0  0  0  0  0  0  0  0  0
    0.8161   -1.6959    0.0003 C   0  0  0  0  0  0  0  0  0  0  0  0
    1.8362   -0.7687    0.0004 C   0  0  0  0  0  0  0  0  0  0  0  0
    1.5260    0.5905   -0.0001 C   0  0  0  0  0  0  0  0  0  0  0  0
    0.2011    0.9939   -0.0007 C   0  0  0  0  0  0  0  0  0  0  0  0
    2.5518    1.4811    0.0003 O   0  0  0  0  0  0  0  0  0  0  0  0
   -4.0695    0.3005    0.0024 H   0  0  0  0  0  0  0  0  0  0  0  0
   -3.1790   -0.9584    0.8970 H   0  0  0  0  0  0  0  0  0  0  0  0
   -3.1820   -0.9607   -0.8919 H   0  0  0  0  0  0  0  0  0  0  0  0
   -1.2869   -2.0554   -0.0004 H   0  0  0  0  0  0  0  0  0  0  0  0
    1.0547   -2.7482    0.0005 H   0  0  0  0  0  0  0  0  0  0  0  0
    2.8718   -1.0669    0.0009 H   0  0  0  0  0  0  0  0  0  0  0  0
   -0.0692    2.0389   -0.0011 H   0  0  0  0  0  0  0  0  0  0  0  0
    2.2144    2.3897    0.0000 H   0  0  0  0  0  0  0  0  0  0  0  0
  1  2  1  0  0  0  0
  2  3  1  0  0  0  0
  3  4  4  0  0  0  0
  4  5  4  0  0  0  0
  5  6  4  0  0  0  0
  6  7  4  0  0  0  0
  3  8  4  0  0  0  0
  7  8  4  0  0  0  0
  7  9  1  0  0  0  0
  1 10  1  0  0  0  0
  1 11  1  0  0  0  0
  1 12  1  0  0  0  0
  4 13  1  0  0  0  0
  5 14  1  0  0  0  0
  6 15  1  0  0  0  0
  8 16  1  0  0  0  0
  9 17  1  0  0  0  0
M  END
