 xtb: 6.7.1 (edcfbbe)
          04052516073D

 27 27  0     0  0            999 V2000
   -3.0202    0.4626    0.5854 C   0  0  0  0  0  0  0  0  0  0  0  0
   -1.5090    0.5318    0.3528 C   0  0  0  0  0  0  0  0  0  0  0  0
   -1.0399    0.8575    1.2887 H   0  0  0  0  0  0  0  0  0  0  0  0
   -1.1435    1.5013   -0.7671 C   0  0  0  0  0  0  0  0  0  0  0  0
    0.3682    1.5866   -0.9980 C   0  0  0  0  0  0  0  0  0  0  0  0
    1.0709    0.2182   -0.9333 C   0  0  0  0  0  0  0  0  0  0  0  0
    1.7406    0.1302   -1.7953 H   0  0  0  0  0  0  0  0  0  0  0  0
    0.0391   -0.9211   -1.0409 C   0  0  0  0  0  0  0  0  0  0  0  0
   -0.9516   -0.8476    0.0847 C   0  0  0  0  0  0  0  0  0  0  0  0
   -1.2746   -1.8224    0.7372 O   0  0  0  0  0  0  0  0  0  0  0  0
    1.9210   -0.0291    0.2955 C   0  0  0  0  0  0  0  0  0  0  0  0
    1.8150    0.6174    1.4457 C   0  0  0  0  0  0  0  0  0  0  0  0
    2.9459   -1.1234    0.1443 C   0  0  0  0  0  0  0  0  0  0  0  0
   -3.5312    0.1916   -0.3359 H   0  0  0  0  0  0  0  0  0  0  0  0
   -3.2437   -0.2912    1.3364 H   0  0  0  0  0  0  0  0  0  0  0  0
   -3.3964    1.4237    0.9240 H   0  0  0  0  0  0  0  0  0  0  0  0
   -1.6412    1.1787   -1.6838 H   0  0  0  0  0  0  0  0  0  0  0  0
   -1.5279    2.4928   -0.5237 H   0  0  0  0  0  0  0  0  0  0  0  0
    0.5376    2.0296   -1.9802 H   0  0  0  0  0  0  0  0  0  0  0  0
    0.8164    2.2583   -0.2677 H   0  0  0  0  0  0  0  0  0  0  0  0
   -0.5123   -0.8215   -1.9781 H   0  0  0  0  0  0  0  0  0  0  0  0
    0.5209   -1.8994   -1.0292 H   0  0  0  0  0  0  0  0  0  0  0  0
    2.4512    0.3663    2.2780 H   0  0  0  0  0  0  0  0  0  0  0  0
    1.1147    1.4128    1.6247 H   0  0  0  0  0  0  0  0  0  0  0  0
    3.9486   -0.7051    0.2147 H   0  0  0  0  0  0  0  0  0  0  0  0
    2.8371   -1.8596    0.9382 H   0  0  0  0  0  0  0  0  0  0  0  0
    2.8560   -1.6296   -0.8124 H   0  0  0  0  0  0  0  0  0  0  0  0
  1  2  1  0  0  0  0
  2  3  1  0  0  0  0
  2  4  1  0  0  0  0
  4  5  1  0  0  0  0
  5  6  1  0  0  0  0
  6  7  1  0  0  0  0
  6  8  1  0  0  0  0
  2  9  1  0  0  0  0
  8  9  1  0  0  0  0
  9 10  2  0  0  0  0
  6 11  1  0  0  0  0
 11 12  2  0  0  0  0
 11 13  1  0  0  0  0
  1 14  1  0  0  0  0
  1 15  1  0  0  0  0
  1 16  1  0  0  0  0
  4 17  1  0  0  0  0
  4 18  1  0  0  0  0
  5 19  1  0  0  0  0
  5 20  1  0  0  0  0
  8 21  1  0  0  0  0
  8 22  1  0  0  0  0
 12 23  1  0  0  0  0
 12 24  1  0  0  0  0
 13 25  1  0  0  0  0
 13 26  1  0  0  0  0
 13 27  1  0  0  0  0
M  END
