 xtb: 6.7.1 (edcfbbe)
          04032522173D

 12 11  0     0  0            999 V2000
   -0.4985    1.4143   -0.0000 C   0  0  0  0  0  0  0  0  0  0  0  0
   -0.4226   -0.0353    0.0011 N   0  0  0  0  0  0  0  0  0  0  0  0
   -1.6631   -0.7728   -0.0005 C   0  0  0  0  0  0  0  0  0  0  0  0
    0.7665   -0.6200    0.0005 C   0  0  0  0  0  0  0  0  0  0  0  0
    1.8423   -0.0316   -0.0005 O   0  0  0  0  0  0  0  0  0  0  0  0
    0.0268    1.8129    0.8686 H   0  0  0  0  0  0  0  0  0  0  0  0
   -1.5390    1.7193    0.0236 H   0  0  0  0  0  0  0  0  0  0  0  0
   -0.0142    1.8112   -0.8931 H   0  0  0  0  0  0  0  0  0  0  0  0
   -2.2448   -0.5205   -0.8879 H   0  0  0  0  0  0  0  0  0  0  0  0
   -2.2440   -0.5258    0.8890 H   0  0  0  0  0  0  0  0  0  0  0  0
   -1.4545   -1.8397   -0.0038 H   0  0  0  0  0  0  0  0  0  0  0  0
    0.7220   -1.7225   -0.0035 H   0  0  0  0  0  0  0  0  0  0  0  0
  1  2  1  0  0  0  0
  2  3  1  0  0  0  0
  2  4  4  0  0  0  0
  4  5  2  0  0  0  0
  1  6  1  0  0  0  0
  1  7  1  0  0  0  0
  1  8  1  0  0  0  0
  3  9  1  0  0  0  0
  3 10  1  0  0  0  0
  3 11  1  0  0  0  0
  4 12  1  0  0  0  0
M  END
