 xtb: 6.7.1 (edcfbbe)
          04042521533D

 17 16  0     0  0            999 V2000
   -1.7286    0.3491   -0.5884 C   0  0  0  0  0  0  0  0  0  0  0  0
   -0.8818    0.3416    0.6799 C   0  0  0  0  0  0  0  0  0  0  0  0
    0.5844   -0.0711    0.4816 C   0  0  0  0  0  0  0  0  0  0  0  0
    0.7114   -1.5024   -0.0370 C   0  0  0  0  0  0  0  0  0  0  0  0
    1.3324    0.8950   -0.4353 C   0  0  0  0  0  0  0  0  0  0  0  0
   -2.7449    0.6535   -0.3486 H   0  0  0  0  0  0  0  0  0  0  0  0
   -1.7695   -0.6400   -1.0362 H   0  0  0  0  0  0  0  0  0  0  0  0
   -1.3308    1.0477   -1.3192 H   0  0  0  0  0  0  0  0  0  0  0  0
   -0.9006    1.3416    1.1207 H   0  0  0  0  0  0  0  0  0  0  0  0
   -1.3364   -0.3417    1.4017 H   0  0  0  0  0  0  0  0  0  0  0  0
    1.0574   -0.0293    1.4708 H   0  0  0  0  0  0  0  0  0  0  0  0
    0.3390   -1.5792   -1.0552 H   0  0  0  0  0  0  0  0  0  0  0  0
    0.1497   -2.1894    0.5918 H   0  0  0  0  0  0  0  0  0  0  0  0
    1.7545   -1.8104   -0.0353 H   0  0  0  0  0  0  0  0  0  0  0  0
    0.9618    0.8259   -1.4548 H   0  0  0  0  0  0  0  0  0  0  0  0
    2.3935    0.6564   -0.4454 H   0  0  0  0  0  0  0  0  0  0  0  0
    1.2144    1.9198   -0.0907 H   0  0  0  0  0  0  0  0  0  0  0  0
  1  2  1  0  0  0  0
  2  3  1  0  0  0  0
  3  4  1  0  0  0  0
  3  5  1  0  0  0  0
  1  6  1  0  0  0  0
  1  7  1  0  0  0  0
  1  8  1  0  0  0  0
  2  9  1  0  0  0  0
  2 10  1  0  0  0  0
  3 11  1  0  0  0  0
  4 12  1  0  0  0  0
  4 13  1  0  0  0  0
  4 14  1  0  0  0  0
  5 15  1  0  0  0  0
  5 16  1  0  0  0  0
  5 17  1  0  0  0  0
M  END
