 xtb: 6.7.1 (edcfbbe)
          04062518003D

 24 24  0     0  0            999 V2000
   -2.2285   -1.0075   -0.3791 C   0  0  0  0  0  0  0  0  0  0  0  0
   -1.1502   -0.2407    0.4001 C   0  0  0  0  0  0  0  0  0  0  0  0
   -1.6076    0.1609    1.3146 H   0  0  0  0  0  0  0  0  0  0  0  0
   -0.5757    0.9111   -0.4299 C   0  0  0  0  0  0  0  0  0  0  0  0
   -0.4044    0.5822   -1.4614 H   0  0  0  0  0  0  0  0  0  0  0  0
    0.7699    1.3272    0.1811 C   0  0  0  0  0  0  0  0  0  0  0  0
    0.6420    1.5004    1.2633 H   0  0  0  0  0  0  0  0  0  0  0  0
    1.7658    0.1767   -0.0121 C   0  0  0  0  0  0  0  0  0  0  0  0
    2.1579    0.2370   -1.0378 H   0  0  0  0  0  0  0  0  0  0  0  0
    1.0578   -1.1862    0.1273 C   0  0  0  0  0  0  0  0  0  0  0  0
    1.7101   -1.8307    0.7314 H   0  0  0  0  0  0  0  0  0  0  0  0
   -0.1302   -1.1254    0.8739 O   0  0  0  0  0  0  0  0  0  0  0  0
    0.8512   -1.7012   -1.1514 O   0  0  0  0  0  0  0  0  0  0  0  0
    2.8111    0.2135    0.9238 O   0  0  0  0  0  0  0  0  0  0  0  0
    1.2796    2.4876   -0.4275 O   0  0  0  0  0  0  0  0  0  0  0  0
   -1.4534    2.0006   -0.5240 O   0  0  0  0  0  0  0  0  0  0  0  0
   -2.9762   -1.8632    0.4481 O   0  0  0  0  0  0  0  0  0  0  0  0
   -1.7546   -1.5648   -1.1966 H   0  0  0  0  0  0  0  0  0  0  0  0
   -2.9360   -0.2910   -0.8014 H   0  0  0  0  0  0  0  0  0  0  0  0
    0.7176   -2.6604   -1.1148 H   0  0  0  0  0  0  0  0  0  0  0  0
    3.2843    1.0541    0.8303 H   0  0  0  0  0  0  0  0  0  0  0  0
    0.5308    3.0147   -0.7522 H   0  0  0  0  0  0  0  0  0  0  0  0
   -1.7409    2.2732    0.3610 H   0  0  0  0  0  0  0  0  0  0  0  0
   -2.3647   -2.4326    0.9375 H   0  0  0  0  0  0  0  0  0  0  0  0
  1  2  1  0  0  0  0
  2  3  1  0  0  0  0
  2  4  1  0  0  0  0
  4  5  1  0  0  0  0
  4  6  1  0  0  0  0
  6  7  1  0  0  0  0
  6  8  1  0  0  0  0
  8  9  1  0  0  0  0
  8 10  1  0  0  0  0
 10 11  1  0  0  0  0
  2 12  1  0  0  0  0
 10 12  1  0  0  0  0
 10 13  1  0  0  0  0
  8 14  1  0  0  0  0
  6 15  1  0  0  0  0
  4 16  1  0  0  0  0
  1 17  1  0  0  0  0
  1 18  1  0  0  0  0
  1 19  1  0  0  0  0
 13 20  1  0  0  0  0
 14 21  1  0  0  0  0
 15 22  1  0  0  0  0
 16 23  1  0  0  0  0
 17 24  1  0  0  0  0
M  END
