 xtb: 6.7.1 (edcfbbe)
          04042523513D

 17 17  0     0  0            999 V2000
    2.7596    0.0022    0.7333 C   0  0  0  0  0  0  0  0  0  0  0  0
    1.9900   -0.0028   -0.5903 C   0  0  0  0  0  0  0  0  0  0  0  0
    0.5141   -0.0014   -0.3295 C   0  0  0  0  0  0  0  0  0  0  0  0
   -0.1934    1.1870   -0.1811 C   0  0  0  0  0  0  0  0  0  0  0  0
   -1.5477    1.1327    0.1009 C   0  0  0  0  0  0  0  0  0  0  0  0
   -2.2230    0.0014    0.2421 N   0  0  0  0  0  0  0  0  0  0  0  0
   -1.5496   -1.1312    0.1027 C   0  0  0  0  0  0  0  0  0  0  0  0
   -0.1955   -1.1883   -0.1791 C   0  0  0  0  0  0  0  0  0  0  0  0
    2.5088    0.8867    1.3143 H   0  0  0  0  0  0  0  0  0  0  0  0
    3.8298    0.0007    0.5453 H   0  0  0  0  0  0  0  0  0  0  0  0
    2.5075   -0.8769    1.3218 H   0  0  0  0  0  0  0  0  0  0  0  0
    2.2620   -0.8913   -1.1622 H   0  0  0  0  0  0  0  0  0  0  0  0
    2.2624    0.8811   -1.1691 H   0  0  0  0  0  0  0  0  0  0  0  0
    0.3029    2.1394   -0.2869 H   0  0  0  0  0  0  0  0  0  0  0  0
   -2.1296    2.0370    0.2206 H   0  0  0  0  0  0  0  0  0  0  0  0
   -2.1331   -2.0344    0.2240 H   0  0  0  0  0  0  0  0  0  0  0  0
    0.2994   -2.1416   -0.2832 H   0  0  0  0  0  0  0  0  0  0  0  0
  1  2  1  0  0  0  0
  2  3  1  0  0  0  0
  3  4  4  0  0  0  0
  4  5  4  0  0  0  0
  5  6  4  0  0  0  0
  6  7  4  0  0  0  0
  3  8  4  0  0  0  0
  7  8  4  0  0  0  0
  1  9  1  0  0  0  0
  1 10  1  0  0  0  0
  1 11  1  0  0  0  0
  2 12  1  0  0  0  0
  2 13  1  0  0  0  0
  4 14  1  0  0  0  0
  5 15  1  0  0  0  0
  7 16  1  0  0  0  0
  8 17  1  0  0  0  0
M  END
