 xtb: 6.7.1 (edcfbbe)
          04052518533D

 23 23  0     0  0            999 V2000
   -2.7424    0.6812    0.7747 C   0  0  0  0  0  0  0  0  0  0  0  0
   -1.7538   -0.0987   -0.0400 C   0  0  0  0  0  0  0  0  0  0  0  0
   -2.0838   -0.7774   -0.9934 O   0  0  0  0  0  0  0  0  0  0  0  0
   -0.3092    0.0386    0.3922 C   0  0  0  0  0  0  0  0  0  0  0  0
    0.3279    1.1560   -0.4520 C   0  0  0  0  0  0  0  0  0  0  0  0
    1.7976    1.3302   -0.0824 C   0  0  0  0  0  0  0  0  0  0  0  0
    2.5606    0.0253   -0.2865 C   0  0  0  0  0  0  0  0  0  0  0  0
    1.9336   -1.0891    0.5454 C   0  0  0  0  0  0  0  0  0  0  0  0
    0.4629   -1.2661    0.1831 C   0  0  0  0  0  0  0  0  0  0  0  0
   -2.3845    1.6953    0.9286 H   0  0  0  0  0  0  0  0  0  0  0  0
   -3.7138    0.6912    0.2883 H   0  0  0  0  0  0  0  0  0  0  0  0
   -2.8351    0.2063    1.7494 H   0  0  0  0  0  0  0  0  0  0  0  0
   -0.2692    0.3278    1.4456 H   0  0  0  0  0  0  0  0  0  0  0  0
    0.2411    0.8899   -1.5081 H   0  0  0  0  0  0  0  0  0  0  0  0
   -0.2095    2.0933   -0.2954 H   0  0  0  0  0  0  0  0  0  0  0  0
    2.2345    2.1182   -0.6980 H   0  0  0  0  0  0  0  0  0  0  0  0
    1.8746    1.6362    0.9629 H   0  0  0  0  0  0  0  0  0  0  0  0
    2.5294   -0.2510   -1.3427 H   0  0  0  0  0  0  0  0  0  0  0  0
    3.6064    0.1575   -0.0040 H   0  0  0  0  0  0  0  0  0  0  0  0
    2.4661   -2.0264    0.3763 H   0  0  0  0  0  0  0  0  0  0  0  0
    2.0176   -0.8418    1.6059 H   0  0  0  0  0  0  0  0  0  0  0  0
    0.3669   -1.5663   -0.8626 H   0  0  0  0  0  0  0  0  0  0  0  0
    0.0170   -2.0541    0.7944 H   0  0  0  0  0  0  0  0  0  0  0  0
  1  2  1  0  0  0  0
  2  3  2  0  0  0  0
  2  4  1  0  0  0  0
  4  5  1  0  0  0  0
  5  6  1  0  0  0  0
  6  7  1  0  0  0  0
  7  8  1  0  0  0  0
  4  9  1  0  0  0  0
  8  9  1  0  0  0  0
  1 10  1  0  0  0  0
  1 11  1  0  0  0  0
  1 12  1  0  0  0  0
  4 13  1  0  0  0  0
  5 14  1  0  0  0  0
  5 15  1  0  0  0  0
  6 16  1  0  0  0  0
  6 17  1  0  0  0  0
  7 18  1  0  0  0  0
  7 19  1  0  0  0  0
  8 20  1  0  0  0  0
  8 21  1  0  0  0  0
  9 22  1  0  0  0  0
  9 23  1  0  0  0  0
M  END
