 xtb: 6.7.1 (edcfbbe)
          04062518003D

 24 24  0     0  0            999 V2000
   -2.4522   -0.2301   -0.5335 C   0  0  0  0  0  0  0  0  0  0  0  0
   -1.1948   -0.2031    0.3424 C   0  0  0  0  0  0  0  0  0  0  0  0
   -1.4438   -0.5325    1.3648 H   0  0  0  0  0  0  0  0  0  0  0  0
   -0.5991    1.2241    0.4364 C   0  0  0  0  0  0  0  0  0  0  0  0
   -1.3579    1.9363    0.0943 H   0  0  0  0  0  0  0  0  0  0  0  0
    0.6253    1.3383   -0.4810 C   0  0  0  0  0  0  0  0  0  0  0  0
    1.0746    2.3312   -0.3256 H   0  0  0  0  0  0  0  0  0  0  0  0
    1.6807    0.2953   -0.0542 C   0  0  0  0  0  0  0  0  0  0  0  0
    2.3544    0.0981   -0.8982 H   0  0  0  0  0  0  0  0  0  0  0  0
    1.0032   -1.0456    0.3122 C   0  0  0  0  0  0  0  0  0  0  0  0
    0.9269   -1.1108    1.4201 H   0  0  0  0  0  0  0  0  0  0  0  0
   -0.2891   -1.1371   -0.2303 O   0  0  0  0  0  0  0  0  0  0  0  0
    1.7766   -2.0719   -0.1964 O   0  0  0  0  0  0  0  0  0  0  0  0
    2.3794    0.8364    1.0413 O   0  0  0  0  0  0  0  0  0  0  0  0
    0.1903    1.1795   -1.8019 O   0  0  0  0  0  0  0  0  0  0  0  0
   -0.2914    1.5775    1.7622 O   0  0  0  0  0  0  0  0  0  0  0  0
   -3.0502   -1.4994   -0.5722 O   0  0  0  0  0  0  0  0  0  0  0  0
   -2.1726    0.1058   -1.5391 H   0  0  0  0  0  0  0  0  0  0  0  0
   -3.1979    0.4462   -0.1136 H   0  0  0  0  0  0  0  0  0  0  0  0
    1.2954   -2.9116   -0.1396 H   0  0  0  0  0  0  0  0  0  0  0  0
    3.1621    0.3010    1.2360 H   0  0  0  0  0  0  0  0  0  0  0  0
    0.9234    1.3346   -2.4154 H   0  0  0  0  0  0  0  0  0  0  0  0
    0.6465    1.3946    1.9423 H   0  0  0  0  0  0  0  0  0  0  0  0
   -2.4072   -2.1248   -0.9356 H   0  0  0  0  0  0  0  0  0  0  0  0
  1  2  1  0  0  0  0
  2  3  1  0  0  0  0
  2  4  1  0  0  0  0
  4  5  1  0  0  0  0
  4  6  1  0  0  0  0
  6  7  1  0  0  0  0
  6  8  1  0  0  0  0
  8  9  1  0  0  0  0
  8 10  1  0  0  0  0
 10 11  1  0  0  0  0
  2 12  1  0  0  0  0
 10 12  1  0  0  0  0
 10 13  1  0  0  0  0
  8 14  1  0  0  0  0
  6 15  1  0  0  0  0
  4 16  1  0  0  0  0
  1 17  1  0  0  0  0
  1 18  1  0  0  0  0
  1 19  1  0  0  0  0
 13 20  1  0  0  0  0
 14 21  1  0  0  0  0
 15 22  1  0  0  0  0
 16 23  1  0  0  0  0
 17 24  1  0  0  0  0
M  END
