 xtb: 6.7.1 (edcfbbe)
          04032521303D

  9  8  0     0  0            999 V2000
   -1.1763    0.2461    0.0000 C   0  0  0  0  0  0  0  0  0  0  0  0
   -0.0000   -0.5341    0.0000 O   0  0  0  0  0  0  0  0  0  0  0  0
    1.1763    0.2461   -0.0000 C   0  0  0  0  0  0  0  0  0  0  0  0
   -1.2245    0.8800   -0.8923 H   0  0  0  0  0  0  0  0  0  0  0  0
   -1.2246    0.8801    0.8923 H   0  0  0  0  0  0  0  0  0  0  0  0
   -2.0080   -0.4538   -0.0001 H   0  0  0  0  0  0  0  0  0  0  0  0
    2.0081   -0.4537   -0.0001 H   0  0  0  0  0  0  0  0  0  0  0  0
    1.2246    0.8799    0.8924 H   0  0  0  0  0  0  0  0  0  0  0  0
    1.2244    0.8802   -0.8922 H   0  0  0  0  0  0  0  0  0  0  0  0
  1  2  1  0  0  0  0
  2  3  1  0  0  0  0
  1  4  1  0  0  0  0
  1  5  1  0  0  0  0
  1  6  1  0  0  0  0
  3  7  1  0  0  0  0
  3  8  1  0  0  0  0
  3  9  1  0  0  0  0
M  END
