 xtb: 6.7.1 (edcfbbe)
          04042516023D

 14 13  0     0  0            999 V2000
   -1.9612   -1.0278   -0.5074 C   0  0  0  0  0  0  0  0  0  0  0  0
   -1.4618    0.0556    0.4447 C   0  0  0  0  0  0  0  0  0  0  0  0
   -0.0253    0.4413    0.1999 C   0  0  0  0  0  0  0  0  0  0  0  0
    0.3934    1.5810    0.2522 O   0  0  0  0  0  0  0  0  0  0  0  0
    0.7429   -0.6093   -0.0509 O   0  0  0  0  0  0  0  0  0  0  0  0
    2.1378   -0.4024   -0.2866 C   0  0  0  0  0  0  0  0  0  0  0  0
   -1.9095   -0.6828   -1.5368 H   0  0  0  0  0  0  0  0  0  0  0  0
   -1.3570   -1.9249   -0.4111 H   0  0  0  0  0  0  0  0  0  0  0  0
   -2.9937   -1.2705   -0.2745 H   0  0  0  0  0  0  0  0  0  0  0  0
   -1.5211   -0.3052    1.4743 H   0  0  0  0  0  0  0  0  0  0  0  0
   -2.0644    0.9609    0.3669 H   0  0  0  0  0  0  0  0  0  0  0  0
    2.6547   -1.2464    0.1621 H   0  0  0  0  0  0  0  0  0  0  0  0
    2.4567    0.5386    0.1634 H   0  0  0  0  0  0  0  0  0  0  0  0
    2.3143   -0.3746   -1.3616 H   0  0  0  0  0  0  0  0  0  0  0  0
  1  2  1  0  0  0  0
  2  3  1  0  0  0  0
  3  4  2  0  0  0  0
  3  5  1  0  0  0  0
  5  6  1  0  0  0  0
  1  7  1  0  0  0  0
  1  8  1  0  0  0  0
  1  9  1  0  0  0  0
  2 10  1  0  0  0  0
  2 11  1  0  0  0  0
  6 12  1  0  0  0  0
  6 13  1  0  0  0  0
  6 14  1  0  0  0  0
M  END
