 xtb: 6.7.1 (edcfbbe)
          04062518003D

 24 24  0     0  0            999 V2000
   -1.6653   -1.3694   -0.5627 C   0  0  0  0  0  0  0  0  0  0  0  0
   -1.1294   -0.4976    0.5834 C   0  0  0  0  0  0  0  0  0  0  0  0
   -1.8917   -0.4801    1.3697 H   0  0  0  0  0  0  0  0  0  0  0  0
   -0.8732    0.9628    0.1295 C   0  0  0  0  0  0  0  0  0  0  0  0
   -1.2175    1.0738   -0.9047 H   0  0  0  0  0  0  0  0  0  0  0  0
    0.6274    1.2702    0.2076 C   0  0  0  0  0  0  0  0  0  0  0  0
    0.9279    1.3685    1.2585 H   0  0  0  0  0  0  0  0  0  0  0  0
    1.4269    0.1072   -0.4025 C   0  0  0  0  0  0  0  0  0  0  0  0
    1.0928   -0.0791   -1.4356 H   0  0  0  0  0  0  0  0  0  0  0  0
    1.1787   -1.1624    0.4271 C   0  0  0  0  0  0  0  0  0  0  0  0
    1.9918   -1.2492    1.1619 H   0  0  0  0  0  0  0  0  0  0  0  0
    0.0089   -1.0756    1.2096 O   0  0  0  0  0  0  0  0  0  0  0  0
    1.1575   -2.2565   -0.4321 O   0  0  0  0  0  0  0  0  0  0  0  0
    2.8027    0.3831   -0.3917 O   0  0  0  0  0  0  0  0  0  0  0  0
    0.9823    2.4869   -0.3978 O   0  0  0  0  0  0  0  0  0  0  0  0
   -1.6372    1.8946    0.8495 O   0  0  0  0  0  0  0  0  0  0  0  0
   -2.8725   -0.8019   -1.0145 O   0  0  0  0  0  0  0  0  0  0  0  0
   -1.8246   -2.3812   -0.1715 H   0  0  0  0  0  0  0  0  0  0  0  0
   -0.9263   -1.4175   -1.3719 H   0  0  0  0  0  0  0  0  0  0  0  0
    1.2325   -3.0823    0.0698 H   0  0  0  0  0  0  0  0  0  0  0  0
    2.9182    1.3286   -0.5902 H   0  0  0  0  0  0  0  0  0  0  0  0
    0.4958    2.6007   -1.2271 H   0  0  0  0  0  0  0  0  0  0  0  0
   -1.3644    1.9017    1.7783 H   0  0  0  0  0  0  0  0  0  0  0  0
   -3.2642   -1.3796   -1.6847 H   0  0  0  0  0  0  0  0  0  0  0  0
  1  2  1  0  0  0  0
  2  3  1  0  0  0  0
  2  4  1  0  0  0  0
  4  5  1  0  0  0  0
  4  6  1  0  0  0  0
  6  7  1  0  0  0  0
  6  8  1  0  0  0  0
  8  9  1  0  0  0  0
  8 10  1  0  0  0  0
 10 11  1  0  0  0  0
  2 12  1  0  0  0  0
 10 12  1  0  0  0  0
 10 13  1  0  0  0  0
  8 14  1  0  0  0  0
  6 15  1  0  0  0  0
  4 16  1  0  0  0  0
  1 17  1  0  0  0  0
  1 18  1  0  0  0  0
  1 19  1  0  0  0  0
 13 20  1  0  0  0  0
 14 21  1  0  0  0  0
 15 22  1  0  0  0  0
 16 23  1  0  0  0  0
 17 24  1  0  0  0  0
M  END
