 xtb: 6.7.1 (edcfbbe)
          04062520053D

 27 27  0     0  0            999 V2000
   -3.4477    0.6023   -0.0036 C   0  0  0  0  0  0  0  0  0  0  0  0
   -1.9532    0.5123   -0.0116 C   0  0  0  0  0  0  0  0  0  0  0  0
   -1.1677    1.4168   -0.5769 C   0  0  0  0  0  0  0  0  0  0  0  0
    0.3255    1.3451   -0.6332 C   0  0  0  0  0  0  0  0  0  0  0  0
    0.8629   -0.0409   -0.2549 C   0  0  0  0  0  0  0  0  0  0  0  0
    0.6048   -0.7348   -1.0667 H   0  0  0  0  0  0  0  0  0  0  0  0
    0.1080   -0.5149    0.9891 C   0  0  0  0  0  0  0  0  0  0  0  0
   -1.3733   -0.7136    0.6526 C   0  0  0  0  0  0  0  0  0  0  0  0
   -1.9310   -0.9032    1.5860 H   0  0  0  0  0  0  0  0  0  0  0  0
   -1.5754   -1.8120   -0.2302 O   0  0  0  0  0  0  0  0  0  0  0  0
    2.3731   -0.0399   -0.1083 C   0  0  0  0  0  0  0  0  0  0  0  0
    3.1565    0.6347   -0.9375 C   0  0  0  0  0  0  0  0  0  0  0  0
    2.9775   -0.8686    0.9871 C   0  0  0  0  0  0  0  0  0  0  0  0
   -3.8662   -0.3030   -0.4410 H   0  0  0  0  0  0  0  0  0  0  0  0
   -3.7886    1.4634   -0.5712 H   0  0  0  0  0  0  0  0  0  0  0  0
   -3.8164    0.6828    1.0186 H   0  0  0  0  0  0  0  0  0  0  0  0
   -1.6068    2.2922   -1.0376 H   0  0  0  0  0  0  0  0  0  0  0  0
    0.6416    1.6126   -1.6427 H   0  0  0  0  0  0  0  0  0  0  0  0
    0.7463    2.0947    0.0460 H   0  0  0  0  0  0  0  0  0  0  0  0
    0.5081   -1.4597    1.3562 H   0  0  0  0  0  0  0  0  0  0  0  0
    0.1877    0.2307    1.7819 H   0  0  0  0  0  0  0  0  0  0  0  0
   -1.2609   -2.6203    0.1961 H   0  0  0  0  0  0  0  0  0  0  0  0
    4.2288    0.6125   -0.8382 H   0  0  0  0  0  0  0  0  0  0  0  0
    2.7784    1.2293   -1.7499 H   0  0  0  0  0  0  0  0  0  0  0  0
    2.6952   -1.9141    0.8750 H   0  0  0  0  0  0  0  0  0  0  0  0
    4.0617   -0.8013    0.9532 H   0  0  0  0  0  0  0  0  0  0  0  0
    2.6402   -0.5256    1.9630 H   0  0  0  0  0  0  0  0  0  0  0  0
  1  2  1  0  0  0  0
  2  3  2  0  0  0  0
  3  4  1  0  0  0  0
  4  5  1  0  0  0  0
  5  6  1  0  0  0  0
  5  7  1  0  0  0  0
  2  8  1  0  0  0  0
  7  8  1  0  0  0  0
  8  9  1  0  0  0  0
  8 10  1  0  0  0  0
  5 11  1  0  0  0  0
 11 12  2  0  0  0  0
 11 13  1  0  0  0  0
  1 14  1  0  0  0  0
  1 15  1  0  0  0  0
  1 16  1  0  0  0  0
  3 17  1  0  0  0  0
  4 18  1  0  0  0  0
  4 19  1  0  0  0  0
  7 20  1  0  0  0  0
  7 21  1  0  0  0  0
 10 22  1  0  0  0  0
 12 23  1  0  0  0  0
 12 24  1  0  0  0  0
 13 25  1  0  0  0  0
 13 26  1  0  0  0  0
 13 27  1  0  0  0  0
M  END
