 xtb: 6.7.1 (edcfbbe)
          04052518533D

 23 23  0     0  0            999 V2000
   -2.3299   -1.0492    0.5352 C   0  0  0  0  0  0  0  0  0  0  0  0
   -1.4725   -0.0086   -0.1297 C   0  0  0  0  0  0  0  0  0  0  0  0
   -1.6954    0.3631   -1.2657 O   0  0  0  0  0  0  0  0  0  0  0  0
   -0.3564    0.5765    0.7158 C   0  0  0  0  0  0  0  0  0  0  0  0
    0.5393    1.5196   -0.0938 C   0  0  0  0  0  0  0  0  0  0  0  0
    1.4037    0.7500   -1.0901 C   0  0  0  0  0  0  0  0  0  0  0  0
    2.2381   -0.3117   -0.3807 C   0  0  0  0  0  0  0  0  0  0  0  0
    1.3305   -1.2655    0.3895 C   0  0  0  0  0  0  0  0  0  0  0  0
    0.4988   -0.4923    1.4088 C   0  0  0  0  0  0  0  0  0  0  0  0
   -3.2700   -1.1423   -0.0023 H   0  0  0  0  0  0  0  0  0  0  0  0
   -1.8159   -2.0074    0.4922 H   0  0  0  0  0  0  0  0  0  0  0  0
   -2.5113   -0.8007    1.5759 H   0  0  0  0  0  0  0  0  0  0  0  0
   -0.8710    1.1614    1.4891 H   0  0  0  0  0  0  0  0  0  0  0  0
   -0.0849    2.2354   -0.6325 H   0  0  0  0  0  0  0  0  0  0  0  0
    1.1822    2.0734    0.5931 H   0  0  0  0  0  0  0  0  0  0  0  0
    0.7565    0.2744   -1.8301 H   0  0  0  0  0  0  0  0  0  0  0  0
    2.0560    1.4473   -1.6196 H   0  0  0  0  0  0  0  0  0  0  0  0
    2.8301   -0.8659   -1.1114 H   0  0  0  0  0  0  0  0  0  0  0  0
    2.9282    0.1728    0.3139 H   0  0  0  0  0  0  0  0  0  0  0  0
    0.6707   -1.7777   -0.3153 H   0  0  0  0  0  0  0  0  0  0  0  0
    1.9303   -2.0206    0.9008 H   0  0  0  0  0  0  0  0  0  0  0  0
   -0.1261   -1.1738    1.9841 H   0  0  0  0  0  0  0  0  0  0  0  0
    1.1730    0.0105    2.1050 H   0  0  0  0  0  0  0  0  0  0  0  0
  1  2  1  0  0  0  0
  2  3  2  0  0  0  0
  2  4  1  0  0  0  0
  4  5  1  0  0  0  0
  5  6  1  0  0  0  0
  6  7  1  0  0  0  0
  7  8  1  0  0  0  0
  4  9  1  0  0  0  0
  8  9  1  0  0  0  0
  1 10  1  0  0  0  0
  1 11  1  0  0  0  0
  1 12  1  0  0  0  0
  4 13  1  0  0  0  0
  5 14  1  0  0  0  0
  5 15  1  0  0  0  0
  6 16  1  0  0  0  0
  6 17  1  0  0  0  0
  7 18  1  0  0  0  0
  7 19  1  0  0  0  0
  8 20  1  0  0  0  0
  8 21  1  0  0  0  0
  9 22  1  0  0  0  0
  9 23  1  0  0  0  0
M  END
