 xtb: 6.7.1 (edcfbbe)
          04032521003D

 22 24  0     0  0            999 V2000
    4.4557   -0.2742   -0.0028 C   0  0  0  0  0  0  0  0  0  0  0  0
    4.2485    1.0930   -0.0004 C   0  0  0  0  0  0  0  0  0  0  0  0
    2.9591    1.6018    0.0015 C   0  0  0  0  0  0  0  0  0  0  0  0
    1.8772    0.7387    0.0011 C   0  0  0  0  0  0  0  0  0  0  0  0
    2.0857   -0.6393   -0.0003 C   0  0  0  0  0  0  0  0  0  0  0  0
    3.3754   -1.1424   -0.0026 C   0  0  0  0  0  0  0  0  0  0  0  0
    1.0373   -1.5384    0.0006 O   0  0  0  0  0  0  0  0  0  0  0  0
   -0.2223   -0.9910    0.0013 C   0  0  0  0  0  0  0  0  0  0  0  0
   -1.3082   -1.8502    0.0019 C   0  0  0  0  0  0  0  0  0  0  0  0
   -2.6008   -1.3504    0.0013 C   0  0  0  0  0  0  0  0  0  0  0  0
   -2.7918    0.0184   -0.0000 C   0  0  0  0  0  0  0  0  0  0  0  0
   -1.7191    0.8971    0.0002 C   0  0  0  0  0  0  0  0  0  0  0  0
   -0.4304    0.3909    0.0012 C   0  0  0  0  0  0  0  0  0  0  0  0
    0.6077    1.2873    0.0020 O   0  0  0  0  0  0  0  0  0  0  0  0
   -4.4016    0.6644   -0.0019 Cl  0  0  0  0  0  0  0  0  0  0  0  0
    5.4567   -0.6734   -0.0048 H   0  0  0  0  0  0  0  0  0  0  0  0
    5.0859    1.7712   -0.0002 H   0  0  0  0  0  0  0  0  0  0  0  0
    2.7685    2.6623    0.0033 H   0  0  0  0  0  0  0  0  0  0  0  0
    3.5078   -2.2117   -0.0042 H   0  0  0  0  0  0  0  0  0  0  0  0
   -1.1233   -2.9112    0.0028 H   0  0  0  0  0  0  0  0  0  0  0  0
   -3.4435   -2.0204    0.0017 H   0  0  0  0  0  0  0  0  0  0  0  0
   -1.8618    1.9645   -0.0003 H   0  0  0  0  0  0  0  0  0  0  0  0
  1  2  4  0  0  0  0
  2  3  4  0  0  0  0
  3  4  4  0  0  0  0
  4  5  4  0  0  0  0
  1  6  4  0  0  0  0
  5  6  4  0  0  0  0
  5  7  1  0  0  0  0
  7  8  1  0  0  0  0
  8  9  4  0  0  0  0
  9 10  4  0  0  0  0
 10 11  4  0  0  0  0
 11 12  4  0  0  0  0
  8 13  4  0  0  0  0
 12 13  4  0  0  0  0
  4 14  1  0  0  0  0
 13 14  1  0  0  0  0
 11 15  1  0  0  0  0
  1 16  1  0  0  0  0
  2 17  1  0  0  0  0
  3 18  1  0  0  0  0
  6 19  1  0  0  0  0
  9 20  1  0  0  0  0
 10 21  1  0  0  0  0
 12 22  1  0  0  0  0
M  END
