 xtb: 6.7.1 (edcfbbe)
          04032521163D

  5  4  0     0  0            999 V2000
    0.0005    1.1928    0.0000 C   0  0  0  0  0  0  0  0  0  0  0  0
   -1.7026   -0.0710   -0.0000 I   0  0  0  0  0  0  0  0  0  0  0  0
    1.7026   -0.0711    0.0000 I   0  0  0  0  0  0  0  0  0  0  0  0
    0.0006    1.8395    0.8830 H   0  0  0  0  0  0  0  0  0  0  0  0
    0.0011    1.8396   -0.8832 H   0  0  0  0  0  0  0  0  0  0  0  0
  1  2  1  0  0  0  0
  1  3  1  0  0  0  0
  1  4  1  0  0  0  0
  1  5  1  0  0  0  0
M  END
