 xtb: 6.7.1 (edcfbbe)
          04032521403D

  6  5  0     0  0            999 V2000
   -0.6258    0.9660    0.0019 C   0  0  0  0  0  0  0  0  0  0  0  0
    0.4202    0.1468    0.0004 C   0  0  0  0  0  0  0  0  0  0  0  0
    2.0263    0.7536   -0.0004 Cl  0  0  0  0  0  0  0  0  0  0  0  0
    0.2940   -1.5694    0.0001 Cl  0  0  0  0  0  0  0  0  0  0  0  0
   -2.2358    0.3809   -0.0005 Cl  0  0  0  0  0  0  0  0  0  0  0  0
   -0.5210    2.0385    0.0011 H   0  0  0  0  0  0  0  0  0  0  0  0
  1  2  2  0  0  0  0
  2  3  1  0  0  0  0
  2  4  1  0  0  0  0
  1  5  1  0  0  0  0
  1  6  1  0  0  0  0
M  END
