 xtb: 6.7.1 (edcfbbe)
          04062511443D

 31 31  0     0  0            999 V2000
    3.4893    0.4848    0.3578 C   0  0  0  0  0  0  0  0  0  0  0  0
    2.1897    0.3586   -0.4347 C   0  0  0  0  0  0  0  0  0  0  0  0
    2.4375    0.3950   -1.5008 H   0  0  0  0  0  0  0  0  0  0  0  0
    1.2243    1.5130   -0.1244 C   0  0  0  0  0  0  0  0  0  0  0  0
    0.2691    1.1536    1.0101 C   0  0  0  0  0  0  0  0  0  0  0  0
   -0.6635   -0.0254    0.6608 C   0  0  0  0  0  0  0  0  0  0  0  0
   -0.7779   -0.6387    1.5646 H   0  0  0  0  0  0  0  0  0  0  0  0
    0.0045   -0.9304   -0.3938 C   0  0  0  0  0  0  0  0  0  0  0  0
   -0.1722   -0.5477   -1.4027 H   0  0  0  0  0  0  0  0  0  0  0  0
    1.5138   -0.9846   -0.1349 C   0  0  0  0  0  0  0  0  0  0  0  0
   -0.5438   -2.2361   -0.4213 O   0  0  0  0  0  0  0  0  0  0  0  0
   -2.0884    0.4516    0.2998 C   0  0  0  0  0  0  0  0  0  0  0  0
   -2.1671    1.2850   -0.9775 C   0  0  0  0  0  0  0  0  0  0  0  0
   -3.0649   -0.7213    0.2122 C   0  0  0  0  0  0  0  0  0  0  0  0
    4.0220    1.3898    0.0756 H   0  0  0  0  0  0  0  0  0  0  0  0
    3.2837    0.5253    1.4250 H   0  0  0  0  0  0  0  0  0  0  0  0
    4.1356   -0.3683    0.1643 H   0  0  0  0  0  0  0  0  0  0  0  0
    1.7947    2.4018    0.1507 H   0  0  0  0  0  0  0  0  0  0  0  0
    0.6502    1.7561   -1.0180 H   0  0  0  0  0  0  0  0  0  0  0  0
    0.8615    0.9013    1.8913 H   0  0  0  0  0  0  0  0  0  0  0  0
   -0.3328    2.0258    1.2696 H   0  0  0  0  0  0  0  0  0  0  0  0
    1.6767   -1.2565    0.9110 H   0  0  0  0  0  0  0  0  0  0  0  0
    1.9493   -1.7707   -0.7549 H   0  0  0  0  0  0  0  0  0  0  0  0
   -0.3737   -2.6616    0.4304 H   0  0  0  0  0  0  0  0  0  0  0  0
   -2.4145    1.0907    1.1311 H   0  0  0  0  0  0  0  0  0  0  0  0
   -1.8840    0.6967   -1.8465 H   0  0  0  0  0  0  0  0  0  0  0  0
   -1.5264    2.1599   -0.9175 H   0  0  0  0  0  0  0  0  0  0  0  0
   -3.1897    1.6260   -1.1250 H   0  0  0  0  0  0  0  0  0  0  0  0
   -4.0683   -0.3582    0.0018 H   0  0  0  0  0  0  0  0  0  0  0  0
   -3.0911   -1.2706    1.1507 H   0  0  0  0  0  0  0  0  0  0  0  0
   -2.7709   -1.4062   -0.5783 H   0  0  0  0  0  0  0  0  0  0  0  0
  1  2  1  0  0  0  0
  2  3  1  0  0  0  0
  2  4  1  0  0  0  0
  4  5  1  0  0  0  0
  5  6  1  0  0  0  0
  6  7  1  0  0  0  0
  6  8  1  0  0  0  0
  8  9  1  0  0  0  0
  2 10  1  0  0  0  0
  8 10  1  0  0  0  0
  8 11  1  0  0  0  0
  6 12  1  0  0  0  0
 12 13  1  0  0  0  0
 12 14  1  0  0  0  0
  1 15  1  0  0  0  0
  1 16  1  0  0  0  0
  1 17  1  0  0  0  0
  4 18  1  0  0  0  0
  4 19  1  0  0  0  0
  5 20  1  0  0  0  0
  5 21  1  0  0  0  0
 10 22  1  0  0  0  0
 10 23  1  0  0  0  0
 11 24  1  0  0  0  0
 12 25  1  0  0  0  0
 13 26  1  0  0  0  0
 13 27  1  0  0  0  0
 13 28  1  0  0  0  0
 14 29  1  0  0  0  0
 14 30  1  0  0  0  0
 14 31  1  0  0  0  0
M  END
