 xtb: 6.7.1 (edcfbbe)
          04062517243D

 26 27  0     0  0            999 V2000
   -3.0404   -0.9833    1.7611 C   0  0  0  0  0  0  0  0  0  0  0  0
   -2.1624   -0.2709    0.8594 N   0  0  0  0  0  0  0  0  0  0  0  0
   -2.3245   -0.2821   -0.4688 C   0  0  0  0  0  0  0  0  0  0  0  0
   -3.2380   -0.8399   -1.0510 O   0  0  0  0  0  0  0  0  0  0  0  0
   -1.4175    0.4041   -1.2026 O   0  0  0  0  0  0  0  0  0  0  0  0
   -0.2314    0.8767   -0.6294 C   0  0  0  0  0  0  0  0  0  0  0  0
   -0.0532    2.2300   -0.5104 C   0  0  0  0  0  0  0  0  0  0  0  0
    1.1500    2.7378    0.0023 C   0  0  0  0  0  0  0  0  0  0  0  0
    2.1481    1.8897    0.3916 C   0  0  0  0  0  0  0  0  0  0  0  0
    1.9969    0.4918    0.2713 C   0  0  0  0  0  0  0  0  0  0  0  0
    0.7884   -0.0383   -0.2559 C   0  0  0  0  0  0  0  0  0  0  0  0
    0.6525   -1.4354   -0.3968 C   0  0  0  0  0  0  0  0  0  0  0  0
    1.6651   -2.2733   -0.0199 C   0  0  0  0  0  0  0  0  0  0  0  0
    2.8544   -1.7541    0.5149 C   0  0  0  0  0  0  0  0  0  0  0  0
    3.0172   -0.4041    0.6544 C   0  0  0  0  0  0  0  0  0  0  0  0
   -3.4872   -0.2901    2.4720 H   0  0  0  0  0  0  0  0  0  0  0  0
   -2.4830   -1.7511    2.2967 H   0  0  0  0  0  0  0  0  0  0  0  0
   -3.8230   -1.4493    1.1659 H   0  0  0  0  0  0  0  0  0  0  0  0
   -1.3797    0.2240    1.2617 H   0  0  0  0  0  0  0  0  0  0  0  0
   -0.8443    2.8944   -0.8201 H   0  0  0  0  0  0  0  0  0  0  0  0
    1.2710    3.8057    0.0870 H   0  0  0  0  0  0  0  0  0  0  0  0
    3.0725    2.2765    0.7917 H   0  0  0  0  0  0  0  0  0  0  0  0
   -0.2595   -1.8341   -0.8192 H   0  0  0  0  0  0  0  0  0  0  0  0
    1.5537   -3.3404   -0.1353 H   0  0  0  0  0  0  0  0  0  0  0  0
    3.6406   -2.4320    0.8091 H   0  0  0  0  0  0  0  0  0  0  0  0
    3.9329    0.0005    1.0578 H   0  0  0  0  0  0  0  0  0  0  0  0
  1  2  1  0  0  0  0
  2  3  4  0  0  0  0
  3  4  2  0  0  0  0
  3  5  1  0  0  0  0
  5  6  1  0  0  0  0
  6  7  2  0  0  0  0
  7  8  4  0  0  0  0
  8  9  2  0  0  0  0
  9 10  4  0  0  0  0
  6 11  4  0  0  0  0
 10 11  4  0  0  0  0
 11 12  4  0  0  0  0
 12 13  2  0  0  0  0
 13 14  4  0  0  0  0
 10 15  4  0  0  0  0
 14 15  2  0  0  0  0
  1 16  1  0  0  0  0
  1 17  1  0  0  0  0
  1 18  1  0  0  0  0
  2 19  1  0  0  0  0
  7 20  1  0  0  0  0
  8 21  1  0  0  0  0
  9 22  1  0  0  0  0
 12 23  1  0  0  0  0
 13 24  1  0  0  0  0
 14 25  1  0  0  0  0
 15 26  1  0  0  0  0
M  END
