 xtb: 6.7.1 (edcfbbe)
          04062518003D

 24 24  0     0  0            999 V2000
   -2.1789   -0.9405   -0.2125 C   0  0  0  0  0  0  0  0  0  0  0  0
   -1.1495   -0.3714    0.7801 C   0  0  0  0  0  0  0  0  0  0  0  0
   -1.6481   -0.3961    1.7586 H   0  0  0  0  0  0  0  0  0  0  0  0
   -0.7511    1.0933    0.5051 C   0  0  0  0  0  0  0  0  0  0  0  0
   -1.6028    1.6030    0.0339 H   0  0  0  0  0  0  0  0  0  0  0  0
    0.4617    1.2591   -0.4372 C   0  0  0  0  0  0  0  0  0  0  0  0
    0.8278    2.2851   -0.2996 H   0  0  0  0  0  0  0  0  0  0  0  0
    1.5945    0.3085   -0.0117 C   0  0  0  0  0  0  0  0  0  0  0  0
    2.3557    0.2944   -0.7992 H   0  0  0  0  0  0  0  0  0  0  0  0
    1.0800   -1.1349    0.1455 C   0  0  0  0  0  0  0  0  0  0  0  0
    1.8507   -1.7094    0.6851 H   0  0  0  0  0  0  0  0  0  0  0  0
   -0.0378   -1.2377    0.9936 O   0  0  0  0  0  0  0  0  0  0  0  0
    0.8549   -1.6569   -1.1230 O   0  0  0  0  0  0  0  0  0  0  0  0
    2.2294    0.7436    1.1627 O   0  0  0  0  0  0  0  0  0  0  0  0
    0.1348    1.1533   -1.7899 O   0  0  0  0  0  0  0  0  0  0  0  0
   -0.3876    1.7384    1.7093 O   0  0  0  0  0  0  0  0  0  0  0  0
   -1.7480   -0.8439   -1.5493 O   0  0  0  0  0  0  0  0  0  0  0  0
   -3.1110   -0.3795   -0.0696 H   0  0  0  0  0  0  0  0  0  0  0  0
   -2.3475   -1.9893    0.0629 H   0  0  0  0  0  0  0  0  0  0  0  0
    0.6413   -2.6001   -1.0643 H   0  0  0  0  0  0  0  0  0  0  0  0
    1.5487    1.0241    1.7988 H   0  0  0  0  0  0  0  0  0  0  0  0
   -0.2662    0.2784   -1.9533 H   0  0  0  0  0  0  0  0  0  0  0  0
   -1.1587    1.8375    2.2861 H   0  0  0  0  0  0  0  0  0  0  0  0
   -2.4479   -1.1589   -2.1376 H   0  0  0  0  0  0  0  0  0  0  0  0
  1  2  1  0  0  0  0
  2  3  1  0  0  0  0
  2  4  1  0  0  0  0
  4  5  1  0  0  0  0
  4  6  1  0  0  0  0
  6  7  1  0  0  0  0
  6  8  1  0  0  0  0
  8  9  1  0  0  0  0
  8 10  1  0  0  0  0
 10 11  1  0  0  0  0
  2 12  1  0  0  0  0
 10 12  1  0  0  0  0
 10 13  1  0  0  0  0
  8 14  1  0  0  0  0
  6 15  1  0  0  0  0
  4 16  1  0  0  0  0
  1 17  1  0  0  0  0
  1 18  1  0  0  0  0
  1 19  1  0  0  0  0
 13 20  1  0  0  0  0
 14 21  1  0  0  0  0
 15 22  1  0  0  0  0
 16 23  1  0  0  0  0
 17 24  1  0  0  0  0
M  END
