 xtb: 6.7.1 (edcfbbe)
          04032521513D

 17 17  0     0  0            999 V2000
    2.8861   -0.0615   -0.0007 C   0  0  0  0  0  0  0  0  0  0  0  0
    1.3917   -0.0042    0.0004 C   0  0  0  0  0  0  0  0  0  0  0  0
    0.7126    1.2128    0.0004 C   0  0  0  0  0  0  0  0  0  0  0  0
   -0.6678    1.2221    0.0002 C   0  0  0  0  0  0  0  0  0  0  0  0
   -1.3551    0.0084    0.0001 C   0  0  0  0  0  0  0  0  0  0  0  0
   -0.7135   -1.1537    0.0003 N   0  0  0  0  0  0  0  0  0  0  0  0
    0.6107   -1.1517    0.0004 C   0  0  0  0  0  0  0  0  0  0  0  0
   -2.8510   -0.0341   -0.0006 C   0  0  0  0  0  0  0  0  0  0  0  0
    3.2802    0.4254   -0.8913 H   0  0  0  0  0  0  0  0  0  0  0  0
    3.2836    0.4595    0.8686 H   0  0  0  0  0  0  0  0  0  0  0  0
    3.2318   -1.0914    0.0180 H   0  0  0  0  0  0  0  0  0  0  0  0
    1.2680    2.1401    0.0005 H   0  0  0  0  0  0  0  0  0  0  0  0
   -1.2164    2.1516    0.0003 H   0  0  0  0  0  0  0  0  0  0  0  0
    1.0698   -2.1329    0.0007 H   0  0  0  0  0  0  0  0  0  0  0  0
   -3.1872   -1.0658    0.0072 H   0  0  0  0  0  0  0  0  0  0  0  0
   -3.2412    0.4792    0.8760 H   0  0  0  0  0  0  0  0  0  0  0  0
   -3.2395    0.4647   -0.8862 H   0  0  0  0  0  0  0  0  0  0  0  0
  1  2  1  0  0  0  0
  2  3  4  0  0  0  0
  3  4  4  0  0  0  0
  4  5  4  0  0  0  0
  5  6  4  0  0  0  0
  2  7  4  0  0  0  0
  6  7  4  0  0  0  0
  5  8  1  0  0  0  0
  1  9  1  0  0  0  0
  1 10  1  0  0  0  0
  1 11  1  0  0  0  0
  3 12  1  0  0  0  0
  4 13  1  0  0  0  0
  7 14  1  0  0  0  0
  8 15  1  0  0  0  0
  8 16  1  0  0  0  0
  8 17  1  0  0  0  0
M  END
