 xtb: 6.7.1 (edcfbbe)
          04062518003D

 24 24  0     0  0            999 V2000
   -1.8986   -0.5750   -0.8055 C   0  0  0  0  0  0  0  0  0  0  0  0
   -1.2180   -0.0945    0.4885 C   0  0  0  0  0  0  0  0  0  0  0  0
   -1.9524   -0.0824    1.3038 H   0  0  0  0  0  0  0  0  0  0  0  0
   -0.6377    1.3228    0.3537 C   0  0  0  0  0  0  0  0  0  0  0  0
   -1.3907    1.9640   -0.1173 H   0  0  0  0  0  0  0  0  0  0  0  0
    0.6523    1.3353   -0.4955 C   0  0  0  0  0  0  0  0  0  0  0  0
    1.1322    2.3129   -0.3264 H   0  0  0  0  0  0  0  0  0  0  0  0
    1.6351    0.2587    0.0068 C   0  0  0  0  0  0  0  0  0  0  0  0
    2.3864    0.0926   -0.7747 H   0  0  0  0  0  0  0  0  0  0  0  0
    0.9576   -1.1027    0.2445 C   0  0  0  0  0  0  0  0  0  0  0  0
    1.6149   -1.6783    0.9205 H   0  0  0  0  0  0  0  0  0  0  0  0
   -0.2389   -1.0167    0.9637 O   0  0  0  0  0  0  0  0  0  0  0  0
    0.8263   -1.7474   -0.9823 O   0  0  0  0  0  0  0  0  0  0  0  0
    2.2158    0.6416    1.2311 O   0  0  0  0  0  0  0  0  0  0  0  0
    0.4235    1.1315   -1.8654 O   0  0  0  0  0  0  0  0  0  0  0  0
   -0.3933    1.8941    1.6166 O   0  0  0  0  0  0  0  0  0  0  0  0
   -2.3504   -1.9028   -0.7068 O   0  0  0  0  0  0  0  0  0  0  0  0
   -1.1848   -0.5610   -1.6306 H   0  0  0  0  0  0  0  0  0  0  0  0
   -2.7290    0.1058   -1.0332 H   0  0  0  0  0  0  0  0  0  0  0  0
    0.2933   -2.5502   -0.8684 H   0  0  0  0  0  0  0  0  0  0  0  0
    2.8999    1.3096    1.0786 H   0  0  0  0  0  0  0  0  0  0  0  0
    0.0153    1.9204   -2.2500 H   0  0  0  0  0  0  0  0  0  0  0  0
    0.2950    1.3742    2.0639 H   0  0  0  0  0  0  0  0  0  0  0  0
   -2.9782   -1.9781    0.0259 H   0  0  0  0  0  0  0  0  0  0  0  0
  1  2  1  0  0  0  0
  2  3  1  0  0  0  0
  2  4  1  0  0  0  0
  4  5  1  0  0  0  0
  4  6  1  0  0  0  0
  6  7  1  0  0  0  0
  6  8  1  0  0  0  0
  8  9  1  0  0  0  0
  8 10  1  0  0  0  0
 10 11  1  0  0  0  0
  2 12  1  0  0  0  0
 10 12  1  0  0  0  0
 10 13  1  0  0  0  0
  8 14  1  0  0  0  0
  6 15  1  0  0  0  0
  4 16  1  0  0  0  0
  1 17  1  0  0  0  0
  1 18  1  0  0  0  0
  1 19  1  0  0  0  0
 13 20  1  0  0  0  0
 14 21  1  0  0  0  0
 15 22  1  0  0  0  0
 16 23  1  0  0  0  0
 17 24  1  0  0  0  0
M  END
