 xtb: 6.7.1 (edcfbbe)
          04032521103D

 11 11  0     0  0            999 V2000
    1.0969   -0.0011    0.0542 C   0  0  0  0  0  0  0  0  0  0  0  0
   -0.0130    1.0513   -0.0690 C   0  0  0  0  0  0  0  0  0  0  0  0
   -1.0200    0.0010    0.1377 N   0  0  0  0  0  0  0  0  0  0  0  0
   -0.0151   -1.0512   -0.0690 C   0  0  0  0  0  0  0  0  0  0  0  0
    1.5838   -0.0017    1.0244 H   0  0  0  0  0  0  0  0  0  0  0  0
    1.8443   -0.0018   -0.7342 H   0  0  0  0  0  0  0  0  0  0  0  0
   -0.0479    1.8193    0.7057 H   0  0  0  0  0  0  0  0  0  0  0  0
   -0.0457    1.5331   -1.0521 H   0  0  0  0  0  0  0  0  0  0  0  0
   -1.7952    0.0018   -0.5140 H   0  0  0  0  0  0  0  0  0  0  0  0
   -0.0517   -1.8192    0.7057 H   0  0  0  0  0  0  0  0  0  0  0  0
   -0.0488   -1.5330   -1.0520 H   0  0  0  0  0  0  0  0  0  0  0  0
  1  2  1  0  0  0  0
  2  3  1  0  0  0  0
  1  4  1  0  0  0  0
  3  4  1  0  0  0  0
  1  5  1  0  0  0  0
  1  6  1  0  0  0  0
  2  7  1  0  0  0  0
  2  8  1  0  0  0  0
  3  9  1  0  0  0  0
  4 10  1  0  0  0  0
  4 11  1  0  0  0  0
M  END
