 xtb: 6.7.1 (edcfbbe)
          04062517243D

 26 27  0     0  0            999 V2000
   -3.6979   -0.0101    1.6263 C   0  0  0  0  0  0  0  0  0  0  0  0
   -2.5061    0.0878    0.8124 N   0  0  0  0  0  0  0  0  0  0  0  0
   -2.4576   -0.3421   -0.4536 C   0  0  0  0  0  0  0  0  0  0  0  0
   -3.3910   -0.8508   -1.0493 O   0  0  0  0  0  0  0  0  0  0  0  0
   -1.2760   -0.2222   -1.1012 O   0  0  0  0  0  0  0  0  0  0  0  0
   -0.2057    0.4962   -0.5584 C   0  0  0  0  0  0  0  0  0  0  0  0
   -0.2771    1.8583   -0.4116 C   0  0  0  0  0  0  0  0  0  0  0  0
    0.8303    2.5706    0.0724 C   0  0  0  0  0  0  0  0  0  0  0  0
    1.9849    1.9173    0.4010 C   0  0  0  0  0  0  0  0  0  0  0  0
    2.0887    0.5178    0.2556 C   0  0  0  0  0  0  0  0  0  0  0  0
    0.9765   -0.2168   -0.2357 C   0  0  0  0  0  0  0  0  0  0  0  0
    1.0803   -1.6152   -0.3839 C   0  0  0  0  0  0  0  0  0  0  0  0
    2.2390   -2.2619   -0.0556 C   0  0  0  0  0  0  0  0  0  0  0  0
    3.3404   -1.5409    0.4324 C   0  0  0  0  0  0  0  0  0  0  0  0
    3.2679   -0.1842    0.5836 C   0  0  0  0  0  0  0  0  0  0  0  0
   -3.5148   -0.6554    2.4846 H   0  0  0  0  0  0  0  0  0  0  0  0
   -4.4873   -0.4382    1.0121 H   0  0  0  0  0  0  0  0  0  0  0  0
   -3.9967    0.9796    1.9685 H   0  0  0  0  0  0  0  0  0  0  0  0
   -1.6729    0.4617    1.2434 H   0  0  0  0  0  0  0  0  0  0  0  0
   -1.1856    2.3766   -0.6787 H   0  0  0  0  0  0  0  0  0  0  0  0
    0.7547    3.6410    0.1778 H   0  0  0  0  0  0  0  0  0  0  0  0
    2.8376    2.4636    0.7735 H   0  0  0  0  0  0  0  0  0  0  0  0
    0.2281   -2.1569   -0.7673 H   0  0  0  0  0  0  0  0  0  0  0  0
    2.3127   -3.3324   -0.1711 H   0  0  0  0  0  0  0  0  0  0  0  0
    4.2464   -2.0696    0.6856 H   0  0  0  0  0  0  0  0  0  0  0  0
    4.1136    0.3737    0.9559 H   0  0  0  0  0  0  0  0  0  0  0  0
  1  2  1  0  0  0  0
  2  3  4  0  0  0  0
  3  4  2  0  0  0  0
  3  5  1  0  0  0  0
  5  6  1  0  0  0  0
  6  7  4  0  0  0  0
  7  8  4  0  0  0  0
  8  9  2  0  0  0  0
  9 10  4  0  0  0  0
  6 11  4  0  0  0  0
 10 11  4  0  0  0  0
 11 12  4  0  0  0  0
 12 13  2  0  0  0  0
 13 14  4  0  0  0  0
 10 15  4  0  0  0  0
 14 15  2  0  0  0  0
  1 16  1  0  0  0  0
  1 17  1  0  0  0  0
  1 18  1  0  0  0  0
  2 19  1  0  0  0  0
  7 20  1  0  0  0  0
  8 21  1  0  0  0  0
  9 22  1  0  0  0  0
 12 23  1  0  0  0  0
 13 24  1  0  0  0  0
 14 25  1  0  0  0  0
 15 26  1  0  0  0  0
M  END
