 xtb: 6.7.1 (edcfbbe)
          04032521483D

  9  8  0     0  0            999 V2000
   -1.3813   -0.5889   -0.0000 C   0  0  0  0  0  0  0  0  0  0  0  0
    0.0000    0.5923   -0.0000 S   0  0  0  0  0  0  0  0  0  0  0  0
    1.3813   -0.5889   -0.0000 C   0  0  0  0  0  0  0  0  0  0  0  0
   -1.3279   -1.2014    0.8948 H   0  0  0  0  0  0  0  0  0  0  0  0
   -1.3281   -1.2011   -0.8950 H   0  0  0  0  0  0  0  0  0  0  0  0
   -2.2926   -0.0014    0.0002 H   0  0  0  0  0  0  0  0  0  0  0  0
    1.3281   -1.2012    0.8950 H   0  0  0  0  0  0  0  0  0  0  0  0
    2.2925   -0.0014   -0.0002 H   0  0  0  0  0  0  0  0  0  0  0  0
    1.3279   -1.2014   -0.8949 H   0  0  0  0  0  0  0  0  0  0  0  0
  1  2  1  0  0  0  0
  2  3  1  0  0  0  0
  1  4  1  0  0  0  0
  1  5  1  0  0  0  0
  1  6  1  0  0  0  0
  3  7  1  0  0  0  0
  3  8  1  0  0  0  0
  3  9  1  0  0  0  0
M  END
