 xtb: 6.7.1 (edcfbbe)
          04042519103D

 15 14  0     0  0            999 V2000
   -1.2754   -0.9410   -0.1594 C   0  0  0  0  0  0  0  0  0  0  0  0
   -0.4098    0.3078   -0.3069 C   0  0  0  0  0  0  0  0  0  0  0  0
   -1.1324    1.5402    0.2284 C   0  0  0  0  0  0  0  0  0  0  0  0
    0.9250    0.1170    0.4188 C   0  0  0  0  0  0  0  0  0  0  0  0
    1.6644   -0.9011   -0.2277 O   0  0  0  0  0  0  0  0  0  0  0  0
   -0.7258   -1.8133   -0.5041 H   0  0  0  0  0  0  0  0  0  0  0  0
   -2.1844   -0.8451   -0.7473 H   0  0  0  0  0  0  0  0  0  0  0  0
   -1.5486   -1.0901    0.8831 H   0  0  0  0  0  0  0  0  0  0  0  0
   -0.1824    0.4514   -1.3684 H   0  0  0  0  0  0  0  0  0  0  0  0
   -1.3370    1.4258    1.2906 H   0  0  0  0  0  0  0  0  0  0  0  0
   -2.0767    1.6739   -0.2922 H   0  0  0  0  0  0  0  0  0  0  0  0
   -0.5299    2.4342    0.0867 H   0  0  0  0  0  0  0  0  0  0  0  0
    1.4884    1.0605    0.3996 H   0  0  0  0  0  0  0  0  0  0  0  0
    0.7350   -0.1548    1.4662 H   0  0  0  0  0  0  0  0  0  0  0  0
    2.4949   -1.0418    0.2448 H   0  0  0  0  0  0  0  0  0  0  0  0
  1  2  1  0  0  0  0
  2  3  1  0  0  0  0
  2  4  1  0  0  0  0
  4  5  1  0  0  0  0
  1  6  1  0  0  0  0
  1  7  1  0  0  0  0
  1  8  1  0  0  0  0
  2  9  1  0  0  0  0
  3 10  1  0  0  0  0
  3 11  1  0  0  0  0
  3 12  1  0  0  0  0
  4 13  1  0  0  0  0
  4 14  1  0  0  0  0
  5 15  1  0  0  0  0
M  END
