 xtb: 6.7.1 (edcfbbe)
          04032521503D

 10  9  0     0  0            999 V2000
   -1.6258   -0.4984    0.0000 C   0  0  0  0  0  0  0  0  0  0  0  0
   -0.6178    0.6521   -0.0000 C   0  0  0  0  0  0  0  0  0  0  0  0
    0.7448    0.1584    0.0000 C   0  0  0  0  0  0  0  0  0  0  0  0
    1.8604   -0.2753   -0.0000 C   0  0  0  0  0  0  0  0  0  0  0  0
   -1.4916   -1.1207    0.8819 H   0  0  0  0  0  0  0  0  0  0  0  0
   -1.4916   -1.1207   -0.8819 H   0  0  0  0  0  0  0  0  0  0  0  0
   -2.6396   -0.1060    0.0000 H   0  0  0  0  0  0  0  0  0  0  0  0
   -0.7645    1.2759    0.8858 H   0  0  0  0  0  0  0  0  0  0  0  0
   -0.7645    1.2758   -0.8859 H   0  0  0  0  0  0  0  0  0  0  0  0
    2.8422   -0.6437   -0.0000 H   0  0  0  0  0  0  0  0  0  0  0  0
  1  2  1  0  0  0  0
  2  3  1  0  0  0  0
  3  4  3  0  0  0  0
  1  5  1  0  0  0  0
  1  6  1  0  0  0  0
  1  7  1  0  0  0  0
  2  8  1  0  0  0  0
  2  9  1  0  0  0  0
  4 10  1  0  0  0  0
M  END
