 xtb: 6.7.1 (edcfbbe)
          04062505073D

 29 29  0     0  0            999 V2000
   -2.8486   -0.7866    0.9993 C   0  0  0  0  0  0  0  0  0  0  0  0
   -2.3675    0.0099   -0.2125 C   0  0  0  0  0  0  0  0  0  0  0  0
   -3.2571    0.3835   -0.7303 H   0  0  0  0  0  0  0  0  0  0  0  0
   -1.5715   -0.8478   -1.1963 C   0  0  0  0  0  0  0  0  0  0  0  0
   -0.3196   -1.4357   -0.5518 C   0  0  0  0  0  0  0  0  0  0  0  0
    0.4490   -0.4146    0.3171 C   0  0  0  0  0  0  0  0  0  0  0  0
    0.1591   -0.5804    1.3626 H   0  0  0  0  0  0  0  0  0  0  0  0
   -0.0147    0.9980    0.0523 C   0  0  0  0  0  0  0  0  0  0  0  0
    0.7253    1.9361   -0.1761 O   0  0  0  0  0  0  0  0  0  0  0  0
   -1.5033    1.2174    0.1801 C   0  0  0  0  0  0  0  0  0  0  0  0
    1.9741   -0.6330    0.2412 C   0  0  0  0  0  0  0  0  0  0  0  0
    2.5754   -0.2191   -1.1012 C   0  0  0  0  0  0  0  0  0  0  0  0
    2.6833    0.0982    1.3810 C   0  0  0  0  0  0  0  0  0  0  0  0
   -2.0207   -1.1191    1.6175 H   0  0  0  0  0  0  0  0  0  0  0  0
   -3.5057   -0.1732    1.6114 H   0  0  0  0  0  0  0  0  0  0  0  0
   -3.4072   -1.6603    0.6726 H   0  0  0  0  0  0  0  0  0  0  0  0
   -2.1941   -1.6567   -1.5808 H   0  0  0  0  0  0  0  0  0  0  0  0
   -1.2813   -0.2168   -2.0407 H   0  0  0  0  0  0  0  0  0  0  0  0
   -0.5898   -2.2941    0.0632 H   0  0  0  0  0  0  0  0  0  0  0  0
    0.3381   -1.8005   -1.3406 H   0  0  0  0  0  0  0  0  0  0  0  0
   -1.6843    1.4925    1.2226 H   0  0  0  0  0  0  0  0  0  0  0  0
   -1.7508    2.0936   -0.4228 H   0  0  0  0  0  0  0  0  0  0  0  0
    2.1406   -1.7096    0.3730 H   0  0  0  0  0  0  0  0  0  0  0  0
    2.4814    0.8541   -1.2422 H   0  0  0  0  0  0  0  0  0  0  0  0
    2.0818   -0.7193   -1.9308 H   0  0  0  0  0  0  0  0  0  0  0  0
    3.6310   -0.4785   -1.1279 H   0  0  0  0  0  0  0  0  0  0  0  0
    3.7521   -0.0977    1.3456 H   0  0  0  0  0  0  0  0  0  0  0  0
    2.3062   -0.2303    2.3473 H   0  0  0  0  0  0  0  0  0  0  0  0
    2.5292    1.1710    1.2932 H   0  0  0  0  0  0  0  0  0  0  0  0
  1  2  1  0  0  0  0
  2  3  1  0  0  0  0
  2  4  1  0  0  0  0
  4  5  1  0  0  0  0
  5  6  1  0  0  0  0
  6  7  1  0  0  0  0
  6  8  1  0  0  0  0
  8  9  2  0  0  0  0
  2 10  1  0  0  0  0
  8 10  1  0  0  0  0
  6 11  1  0  0  0  0
 11 12  1  0  0  0  0
 11 13  1  0  0  0  0
  1 14  1  0  0  0  0
  1 15  1  0  0  0  0
  1 16  1  0  0  0  0
  4 17  1  0  0  0  0
  4 18  1  0  0  0  0
  5 19  1  0  0  0  0
  5 20  1  0  0  0  0
 10 21  1  0  0  0  0
 10 22  1  0  0  0  0
 11 23  1  0  0  0  0
 12 24  1  0  0  0  0
 12 25  1  0  0  0  0
 12 26  1  0  0  0  0
 13 27  1  0  0  0  0
 13 28  1  0  0  0  0
 13 29  1  0  0  0  0
M  END
