 xtb: 6.7.1 (edcfbbe)
          04032521003D

 24 25  0     0  0            999 V2000
   -3.0202   -1.5013    0.0033 C   0  0  0  0  0  0  0  0  0  0  0  0
   -1.7478   -0.7030   -0.0008 C   0  0  0  0  0  0  0  0  0  0  0  0
   -0.5515   -1.3755   -0.0017 C   0  0  0  0  0  0  0  0  0  0  0  0
    0.6871   -0.7076   -0.0016 C   0  0  0  0  0  0  0  0  0  0  0  0
    1.9199   -1.3931   -0.0013 C   0  0  0  0  0  0  0  0  0  0  0  0
    3.1002   -0.7038    0.0007 C   0  0  0  0  0  0  0  0  0  0  0  0
    3.1018    0.7005    0.0020 C   0  0  0  0  0  0  0  0  0  0  0  0
    1.9230    1.3925    0.0008 C   0  0  0  0  0  0  0  0  0  0  0  0
    0.6887    0.7102   -0.0009 C   0  0  0  0  0  0  0  0  0  0  0  0
   -0.5482    1.3830   -0.0014 C   0  0  0  0  0  0  0  0  0  0  0  0
   -1.7464    0.7150   -0.0010 C   0  0  0  0  0  0  0  0  0  0  0  0
   -3.0304    1.4906    0.0002 C   0  0  0  0  0  0  0  0  0  0  0  0
   -3.0614   -2.1250    0.8953 H   0  0  0  0  0  0  0  0  0  0  0  0
   -3.9021   -0.8722   -0.0176 H   0  0  0  0  0  0  0  0  0  0  0  0
   -3.0450   -2.1614   -0.8623 H   0  0  0  0  0  0  0  0  0  0  0  0
   -0.5505   -2.4572   -0.0020 H   0  0  0  0  0  0  0  0  0  0  0  0
    1.9135   -2.4738   -0.0021 H   0  0  0  0  0  0  0  0  0  0  0  0
    4.0415   -1.2337    0.0016 H   0  0  0  0  0  0  0  0  0  0  0  0
    4.0443    1.2282    0.0040 H   0  0  0  0  0  0  0  0  0  0  0  0
    1.9195    2.4733    0.0016 H   0  0  0  0  0  0  0  0  0  0  0  0
   -0.5379    2.4645   -0.0013 H   0  0  0  0  0  0  0  0  0  0  0  0
   -3.6234    1.2550   -0.8822 H   0  0  0  0  0  0  0  0  0  0  0  0
   -3.6216    1.2550    0.8838 H   0  0  0  0  0  0  0  0  0  0  0  0
   -2.8251    2.5579   -0.0002 H   0  0  0  0  0  0  0  0  0  0  0  0
  1  2  1  0  0  0  0
  2  3  2  0  0  0  0
  3  4  4  0  0  0  0
  4  5  4  0  0  0  0
  5  6  2  0  0  0  0
  6  7  4  0  0  0  0
  7  8  2  0  0  0  0
  4  9  4  0  0  0  0
  8  9  4  0  0  0  0
  9 10  4  0  0  0  0
  2 11  4  0  0  0  0
 10 11  2  0  0  0  0
 11 12  1  0  0  0  0
  1 13  1  0  0  0  0
  1 14  1  0  0  0  0
  1 15  1  0  0  0  0
  3 16  1  0  0  0  0
  5 17  1  0  0  0  0
  6 18  1  0  0  0  0
  7 19  1  0  0  0  0
  8 20  1  0  0  0  0
 10 21  1  0  0  0  0
 12 22  1  0  0  0  0
 12 23  1  0  0  0  0
 12 24  1  0  0  0  0
M  END
