 xtb: 6.7.1 (edcfbbe)
          04062518003D

 24 24  0     0  0            999 V2000
   -1.8337   -1.0644   -0.6354 C   0  0  0  0  0  0  0  0  0  0  0  0
   -1.0367   -0.4891    0.5525 C   0  0  0  0  0  0  0  0  0  0  0  0
   -1.6607   -0.5666    1.4526 H   0  0  0  0  0  0  0  0  0  0  0  0
   -0.7066    1.0011    0.3621 C   0  0  0  0  0  0  0  0  0  0  0  0
   -1.5536    1.4668   -0.1538 H   0  0  0  0  0  0  0  0  0  0  0  0
    0.5735    1.2427   -0.4729 C   0  0  0  0  0  0  0  0  0  0  0  0
    0.8324    2.3021   -0.3397 H   0  0  0  0  0  0  0  0  0  0  0  0
    1.7156    0.3656    0.0687 C   0  0  0  0  0  0  0  0  0  0  0  0
    2.5610    0.4109   -0.6306 H   0  0  0  0  0  0  0  0  0  0  0  0
    1.2632   -1.1042    0.1262 C   0  0  0  0  0  0  0  0  0  0  0  0
    2.0200   -1.6721    0.6868 H   0  0  0  0  0  0  0  0  0  0  0  0
    0.0964   -1.2957    0.8742 O   0  0  0  0  0  0  0  0  0  0  0  0
    1.1479   -1.5629   -1.1894 O   0  0  0  0  0  0  0  0  0  0  0  0
    2.1010    0.7365    1.3703 O   0  0  0  0  0  0  0  0  0  0  0  0
    0.3928    1.0625   -1.8537 O   0  0  0  0  0  0  0  0  0  0  0  0
   -0.5976    1.6562    1.6051 O   0  0  0  0  0  0  0  0  0  0  0  0
   -3.1046   -0.4773   -0.7501 O   0  0  0  0  0  0  0  0  0  0  0  0
   -1.9106   -2.1513   -0.5025 H   0  0  0  0  0  0  0  0  0  0  0  0
   -1.3298   -0.8548   -1.5794 H   0  0  0  0  0  0  0  0  0  0  0  0
    1.0365   -2.5253   -1.2034 H   0  0  0  0  0  0  0  0  0  0  0  0
    2.6380    1.5415    1.3344 H   0  0  0  0  0  0  0  0  0  0  0  0
    0.5510    0.1297   -2.0745 H   0  0  0  0  0  0  0  0  0  0  0  0
    0.1766    1.2949    2.0707 H   0  0  0  0  0  0  0  0  0  0  0  0
   -3.6367   -0.6935    0.0289 H   0  0  0  0  0  0  0  0  0  0  0  0
  1  2  1  0  0  0  0
  2  3  1  0  0  0  0
  2  4  1  0  0  0  0
  4  5  1  0  0  0  0
  4  6  1  0  0  0  0
  6  7  1  0  0  0  0
  6  8  1  0  0  0  0
  8  9  1  0  0  0  0
  8 10  1  0  0  0  0
 10 11  1  0  0  0  0
  2 12  1  0  0  0  0
 10 12  1  0  0  0  0
 10 13  1  0  0  0  0
  8 14  1  0  0  0  0
  6 15  1  0  0  0  0
  4 16  1  0  0  0  0
  1 17  1  0  0  0  0
  1 18  1  0  0  0  0
  1 19  1  0  0  0  0
 13 20  1  0  0  0  0
 14 21  1  0  0  0  0
 15 22  1  0  0  0  0
 16 23  1  0  0  0  0
 17 24  1  0  0  0  0
M  END
