 xtb: 6.7.1 (edcfbbe)
          04052503223D

 18 17  0     0  0            999 V2000
    1.8579   -0.9989    0.6784 C   0  0  0  0  0  0  0  0  0  0  0  0
    1.2109    0.1636   -0.0672 C   0  0  0  0  0  0  0  0  0  0  0  0
   -0.3447    0.1935   -0.1116 C   0  0  0  0  0  0  0  0  0  0  0  0
   -0.8502    1.5263    0.4563 C   0  0  0  0  0  0  0  0  0  0  0  0
   -1.0083   -0.9584    0.6454 C   0  0  0  0  0  0  0  0  0  0  0  0
   -0.7886    0.0511   -1.4633 O   0  0  0  0  0  0  0  0  0  0  0  0
    1.5770   -1.0007    1.7277 H   0  0  0  0  0  0  0  0  0  0  0  0
    2.9397   -0.9009    0.6178 H   0  0  0  0  0  0  0  0  0  0  0  0
    1.5801   -1.9527    0.2394 H   0  0  0  0  0  0  0  0  0  0  0  0
    1.5648    0.1380   -1.1007 H   0  0  0  0  0  0  0  0  0  0  0  0
    1.5671    1.0946    0.3779 H   0  0  0  0  0  0  0  0  0  0  0  0
   -1.9317    1.5861    0.3558 H   0  0  0  0  0  0  0  0  0  0  0  0
   -0.5916    1.6041    1.5083 H   0  0  0  0  0  0  0  0  0  0  0  0
   -0.4042    2.3644   -0.0761 H   0  0  0  0  0  0  0  0  0  0  0  0
   -2.0870   -0.8594    0.5528 H   0  0  0  0  0  0  0  0  0  0  0  0
   -0.7205   -1.9096    0.2089 H   0  0  0  0  0  0  0  0  0  0  0  0
   -0.7388   -0.9396    1.6955 H   0  0  0  0  0  0  0  0  0  0  0  0
   -0.5512    0.8449   -1.9606 H   0  0  0  0  0  0  0  0  0  0  0  0
  1  2  1  0  0  0  0
  2  3  1  0  0  0  0
  3  4  1  0  0  0  0
  3  5  1  0  0  0  0
  3  6  1  0  0  0  0
  1  7  1  0  0  0  0
  1  8  1  0  0  0  0
  1  9  1  0  0  0  0
  2 10  1  0  0  0  0
  2 11  1  0  0  0  0
  4 12  1  0  0  0  0
  4 13  1  0  0  0  0
  4 14  1  0  0  0  0
  5 15  1  0  0  0  0
  5 16  1  0  0  0  0
  5 17  1  0  0  0  0
  6 18  1  0  0  0  0
M  END
