 xtb: 6.7.1 (edcfbbe)
          04062518003D

 24 24  0     0  0            999 V2000
   -2.4929   -0.3026   -0.4751 C   0  0  0  0  0  0  0  0  0  0  0  0
   -1.1775   -0.2006    0.3075 C   0  0  0  0  0  0  0  0  0  0  0  0
   -1.3382   -0.5417    1.3432 H   0  0  0  0  0  0  0  0  0  0  0  0
   -0.6281    1.2468    0.3416 C   0  0  0  0  0  0  0  0  0  0  0  0
   -1.3602    1.9262   -0.1105 H   0  0  0  0  0  0  0  0  0  0  0  0
    0.6643    1.3293   -0.5012 C   0  0  0  0  0  0  0  0  0  0  0  0
    1.0750    2.3403   -0.4092 H   0  0  0  0  0  0  0  0  0  0  0  0
    1.7029    0.3343    0.0504 C   0  0  0  0  0  0  0  0  0  0  0  0
    2.4949    0.1928   -0.6934 H   0  0  0  0  0  0  0  0  0  0  0  0
    1.0296   -1.0436    0.2756 C   0  0  0  0  0  0  0  0  0  0  0  0
    0.9261   -1.2093    1.3669 H   0  0  0  0  0  0  0  0  0  0  0  0
   -0.2583   -1.0906   -0.3138 O   0  0  0  0  0  0  0  0  0  0  0  0
    1.8073   -2.0144   -0.3171 O   0  0  0  0  0  0  0  0  0  0  0  0
    2.3305    0.8067    1.2094 O   0  0  0  0  0  0  0  0  0  0  0  0
    0.4025    1.1339   -1.8641 O   0  0  0  0  0  0  0  0  0  0  0  0
   -0.3055    1.6508    1.6528 O   0  0  0  0  0  0  0  0  0  0  0  0
   -3.0476   -1.5899   -0.4215 O   0  0  0  0  0  0  0  0  0  0  0  0
   -2.3131    0.0067   -1.5120 H   0  0  0  0  0  0  0  0  0  0  0  0
   -3.2340    0.3616   -0.0274 H   0  0  0  0  0  0  0  0  0  0  0  0
    1.4108   -2.8918   -0.1971 H   0  0  0  0  0  0  0  0  0  0  0  0
    1.6520    1.1670    1.8069 H   0  0  0  0  0  0  0  0  0  0  0  0
    0.2062    0.1945   -2.0096 H   0  0  0  0  0  0  0  0  0  0  0  0
   -1.0999    1.9328    2.1271 H   0  0  0  0  0  0  0  0  0  0  0  0
   -2.4183   -2.2151   -0.8083 H   0  0  0  0  0  0  0  0  0  0  0  0
  1  2  1  0  0  0  0
  2  3  1  0  0  0  0
  2  4  1  0  0  0  0
  4  5  1  0  0  0  0
  4  6  1  0  0  0  0
  6  7  1  0  0  0  0
  6  8  1  0  0  0  0
  8  9  1  0  0  0  0
  8 10  1  0  0  0  0
 10 11  1  0  0  0  0
  2 12  1  0  0  0  0
 10 12  1  0  0  0  0
 10 13  1  0  0  0  0
  8 14  1  0  0  0  0
  6 15  1  0  0  0  0
  4 16  1  0  0  0  0
  1 17  1  0  0  0  0
  1 18  1  0  0  0  0
  1 19  1  0  0  0  0
 13 20  1  0  0  0  0
 14 21  1  0  0  0  0
 15 22  1  0  0  0  0
 16 23  1  0  0  0  0
 17 24  1  0  0  0  0
M  END
