 xtb: 6.7.1 (edcfbbe)
          04032521393D

 12 12  0     0  0            999 V2000
   -2.3429    0.0000    0.0006 C   0  0  0  0  0  0  0  0  0  0  0  0
   -1.6500   -1.1991    0.0004 C   0  0  0  0  0  0  0  0  0  0  0  0
   -0.2650   -1.2071   -0.0006 C   0  0  0  0  0  0  0  0  0  0  0  0
    0.4120   -0.0000   -0.0012 C   0  0  0  0  0  0  0  0  0  0  0  0
   -0.2650    1.2070   -0.0004 C   0  0  0  0  0  0  0  0  0  0  0  0
   -1.6500    1.1991   -0.0003 C   0  0  0  0  0  0  0  0  0  0  0  0
    2.1570    0.0000    0.0004 Cl  0  0  0  0  0  0  0  0  0  0  0  0
   -3.4214    0.0001    0.0004 H   0  0  0  0  0  0  0  0  0  0  0  0
   -2.1848   -2.1358   -0.0002 H   0  0  0  0  0  0  0  0  0  0  0  0
    0.2835   -2.1352    0.0006 H   0  0  0  0  0  0  0  0  0  0  0  0
    0.2835    2.1352   -0.0000 H   0  0  0  0  0  0  0  0  0  0  0  0
   -2.1846    2.1358    0.0037 H   0  0  0  0  0  0  0  0  0  0  0  0
  1  2  4  0  0  0  0
  2  3  4  0  0  0  0
  3  4  4  0  0  0  0
  4  5  4  0  0  0  0
  1  6  4  0  0  0  0
  5  6  4  0  0  0  0
  4  7  1  0  0  0  0
  1  8  1  0  0  0  0
  2  9  1  0  0  0  0
  3 10  1  0  0  0  0
  5 11  1  0  0  0  0
  6 12  1  0  0  0  0
M  END
