 xtb: 6.7.1 (edcfbbe)
          04032521233D

 14 14  0     0  0            999 V2000
    0.7329   -1.1662    0.2204 C   0  0  0  0  0  0  0  0  0  0  0  0
   -0.7322   -1.1666   -0.2204 C   0  0  0  0  0  0  0  0  0  0  0  0
   -1.3921   -0.0004    0.2438 O   0  0  0  0  0  0  0  0  0  0  0  0
   -0.7329    1.1662   -0.2204 C   0  0  0  0  0  0  0  0  0  0  0  0
    0.7322    1.1666    0.2204 C   0  0  0  0  0  0  0  0  0  0  0  0
    1.3921    0.0004   -0.2438 O   0  0  0  0  0  0  0  0  0  0  0  0
    1.2710   -2.0101   -0.2095 H   0  0  0  0  0  0  0  0  0  0  0  0
    0.7863   -1.2047    1.3177 H   0  0  0  0  0  0  0  0  0  0  0  0
   -0.7857   -1.2053   -1.3177 H   0  0  0  0  0  0  0  0  0  0  0  0
   -1.2696   -2.0109    0.2096 H   0  0  0  0  0  0  0  0  0  0  0  0
   -0.7864    1.2048   -1.3177 H   0  0  0  0  0  0  0  0  0  0  0  0
   -1.2709    2.0101    0.2096 H   0  0  0  0  0  0  0  0  0  0  0  0
    1.2697    2.0108   -0.2095 H   0  0  0  0  0  0  0  0  0  0  0  0
    0.7856    1.2052    1.3177 H   0  0  0  0  0  0  0  0  0  0  0  0
  1  2  1  0  0  0  0
  2  3  1  0  0  0  0
  3  4  1  0  0  0  0
  4  5  1  0  0  0  0
  1  6  1  0  0  0  0
  5  6  1  0  0  0  0
  1  7  1  0  0  0  0
  1  8  1  0  0  0  0
  2  9  1  0  0  0  0
  2 10  1  0  0  0  0
  4 11  1  0  0  0  0
  4 12  1  0  0  0  0
  5 13  1  0  0  0  0
  5 14  1  0  0  0  0
M  END
