 xtb: 6.7.1 (edcfbbe)
          04062520053D

 27 27  0     0  0            999 V2000
   -3.4224    0.5638    0.0793 C   0  0  0  0  0  0  0  0  0  0  0  0
   -1.9264    0.4844    0.1024 C   0  0  0  0  0  0  0  0  0  0  0  0
   -1.1396    1.5239   -0.1412 C   0  0  0  0  0  0  0  0  0  0  0  0
    0.3568    1.4834   -0.1221 C   0  0  0  0  0  0  0  0  0  0  0  0
    0.8704    0.0504   -0.2802 C   0  0  0  0  0  0  0  0  0  0  0  0
    0.6148   -0.2900   -1.2902 H   0  0  0  0  0  0  0  0  0  0  0  0
    0.1290   -0.8395    0.7246 C   0  0  0  0  0  0  0  0  0  0  0  0
   -1.3684   -0.8908    0.4023 C   0  0  0  0  0  0  0  0  0  0  0  0
   -1.9075   -1.3151    1.2592 H   0  0  0  0  0  0  0  0  0  0  0  0
   -1.6586   -1.8012   -0.6525 O   0  0  0  0  0  0  0  0  0  0  0  0
    2.3673   -0.0654   -0.1280 C   0  0  0  0  0  0  0  0  0  0  0  0
    3.1017   -0.6492   -1.0633 C   0  0  0  0  0  0  0  0  0  0  0  0
    2.9868    0.4923    1.1176 C   0  0  0  0  0  0  0  0  0  0  0  0
   -3.7596    1.5121   -0.3292 H   0  0  0  0  0  0  0  0  0  0  0  0
   -3.8163    0.4560    1.0896 H   0  0  0  0  0  0  0  0  0  0  0  0
   -3.8246   -0.2518   -0.5196 H   0  0  0  0  0  0  0  0  0  0  0  0
   -1.5812    2.4903   -0.3458 H   0  0  0  0  0  0  0  0  0  0  0  0
    0.7537    2.1134   -0.9215 H   0  0  0  0  0  0  0  0  0  0  0  0
    0.7006    1.9023    0.8276 H   0  0  0  0  0  0  0  0  0  0  0  0
    0.5291   -1.8553    0.7023 H   0  0  0  0  0  0  0  0  0  0  0  0
    0.2498   -0.4406    1.7319 H   0  0  0  0  0  0  0  0  0  0  0  0
   -1.2029   -1.5034   -1.4515 H   0  0  0  0  0  0  0  0  0  0  0  0
    4.1689   -0.7559   -0.9648 H   0  0  0  0  0  0  0  0  0  0  0  0
    2.6703   -1.0462   -1.9670 H   0  0  0  0  0  0  0  0  0  0  0  0
    2.4455    0.1623    2.0011 H   0  0  0  0  0  0  0  0  0  0  0  0
    4.0220    0.1732    1.2016 H   0  0  0  0  0  0  0  0  0  0  0  0
    2.9675    1.5809    1.0951 H   0  0  0  0  0  0  0  0  0  0  0  0
  1  2  1  0  0  0  0
  2  3  2  0  0  0  0
  3  4  1  0  0  0  0
  4  5  1  0  0  0  0
  5  6  1  0  0  0  0
  5  7  1  0  0  0  0
  2  8  1  0  0  0  0
  7  8  1  0  0  0  0
  8  9  1  0  0  0  0
  8 10  1  0  0  0  0
  5 11  1  0  0  0  0
 11 12  2  0  0  0  0
 11 13  1  0  0  0  0
  1 14  1  0  0  0  0
  1 15  1  0  0  0  0
  1 16  1  0  0  0  0
  3 17  1  0  0  0  0
  4 18  1  0  0  0  0
  4 19  1  0  0  0  0
  7 20  1  0  0  0  0
  7 21  1  0  0  0  0
 10 22  1  0  0  0  0
 12 23  1  0  0  0  0
 12 24  1  0  0  0  0
 13 25  1  0  0  0  0
 13 26  1  0  0  0  0
 13 27  1  0  0  0  0
M  END
