 xtb: 6.7.1 (edcfbbe)
          04062518003D

 24 24  0     0  0            999 V2000
   -2.4337   -0.8437    0.3087 C   0  0  0  0  0  0  0  0  0  0  0  0
   -0.9757   -0.4407    0.5690 C   0  0  0  0  0  0  0  0  0  0  0  0
   -0.7405   -0.6477    1.6234 H   0  0  0  0  0  0  0  0  0  0  0  0
   -0.7376    1.0636    0.3131 C   0  0  0  0  0  0  0  0  0  0  0  0
   -1.5533    1.4524   -0.3107 H   0  0  0  0  0  0  0  0  0  0  0  0
    0.5878    1.2569   -0.4599 C   0  0  0  0  0  0  0  0  0  0  0  0
    0.9131    2.2995   -0.3731 H   0  0  0  0  0  0  0  0  0  0  0  0
    1.6750    0.3575    0.1615 C   0  0  0  0  0  0  0  0  0  0  0  0
    2.6006    0.4443   -0.4193 H   0  0  0  0  0  0  0  0  0  0  0  0
    1.2211   -1.1311    0.1063 C   0  0  0  0  0  0  0  0  0  0  0  0
    1.3652   -1.5726    1.1063 H   0  0  0  0  0  0  0  0  0  0  0  0
   -0.1440   -1.2316   -0.2643 O   0  0  0  0  0  0  0  0  0  0  0  0
    1.9606   -1.9030   -0.7635 O   0  0  0  0  0  0  0  0  0  0  0  0
    1.9969    0.7616    1.4678 O   0  0  0  0  0  0  0  0  0  0  0  0
    0.4277    1.0165   -1.8334 O   0  0  0  0  0  0  0  0  0  0  0  0
   -0.7005    1.6982    1.5725 O   0  0  0  0  0  0  0  0  0  0  0  0
   -2.8345   -0.5922   -1.0132 O   0  0  0  0  0  0  0  0  0  0  0  0
   -3.0783   -0.2408    0.9508 H   0  0  0  0  0  0  0  0  0  0  0  0
   -2.5567   -1.9013    0.5637 H   0  0  0  0  0  0  0  0  0  0  0  0
    1.8424   -1.5914   -1.6749 H   0  0  0  0  0  0  0  0  0  0  0  0
    1.1831    1.0265    1.9333 H   0  0  0  0  0  0  0  0  0  0  0  0
   -0.0263    0.1663   -1.9425 H   0  0  0  0  0  0  0  0  0  0  0  0
   -0.8555    2.6484    1.4740 H   0  0  0  0  0  0  0  0  0  0  0  0
   -2.4051   -1.2341   -1.5954 H   0  0  0  0  0  0  0  0  0  0  0  0
  1  2  1  0  0  0  0
  2  3  1  0  0  0  0
  2  4  1  0  0  0  0
  4  5  1  0  0  0  0
  4  6  1  0  0  0  0
  6  7  1  0  0  0  0
  6  8  1  0  0  0  0
  8  9  1  0  0  0  0
  8 10  1  0  0  0  0
 10 11  1  0  0  0  0
  2 12  1  0  0  0  0
 10 12  1  0  0  0  0
 10 13  1  0  0  0  0
  8 14  1  0  0  0  0
  6 15  1  0  0  0  0
  4 16  1  0  0  0  0
  1 17  1  0  0  0  0
  1 18  1  0  0  0  0
  1 19  1  0  0  0  0
 13 20  1  0  0  0  0
 14 21  1  0  0  0  0
 15 22  1  0  0  0  0
 16 23  1  0  0  0  0
 17 24  1  0  0  0  0
M  END
