 xtb: 6.7.1 (edcfbbe)
          04052516073D

 27 27  0     0  0            999 V2000
   -2.5569    0.4331   -1.2449 C   0  0  0  0  0  0  0  0  0  0  0  0
   -2.0167    0.4582    0.1910 C   0  0  0  0  0  0  0  0  0  0  0  0
   -2.8781    0.5699    0.8598 H   0  0  0  0  0  0  0  0  0  0  0  0
   -1.0333    1.6009    0.4331 C   0  0  0  0  0  0  0  0  0  0  0  0
    0.2681    1.4346   -0.3556 C   0  0  0  0  0  0  0  0  0  0  0  0
    0.7707   -0.0252   -0.3750 C   0  0  0  0  0  0  0  0  0  0  0  0
    0.4971   -0.4802   -1.3325 H   0  0  0  0  0  0  0  0  0  0  0  0
    0.0942   -0.8550    0.7267 C   0  0  0  0  0  0  0  0  0  0  0  0
   -1.3895   -0.8821    0.5061 C   0  0  0  0  0  0  0  0  0  0  0  0
   -2.0453   -1.9063    0.5587 O   0  0  0  0  0  0  0  0  0  0  0  0
    2.2763   -0.0740   -0.2595 C   0  0  0  0  0  0  0  0  0  0  0  0
    3.0323   -0.3213   -1.3180 C   0  0  0  0  0  0  0  0  0  0  0  0
    2.8675    0.1829    1.0934 C   0  0  0  0  0  0  0  0  0  0  0  0
   -1.7486    0.3202   -1.9617 H   0  0  0  0  0  0  0  0  0  0  0  0
   -3.2421   -0.4029   -1.3652 H   0  0  0  0  0  0  0  0  0  0  0  0
   -3.0873    1.3573   -1.4570 H   0  0  0  0  0  0  0  0  0  0  0  0
   -1.5036    2.5453    0.1563 H   0  0  0  0  0  0  0  0  0  0  0  0
   -0.8124    1.6485    1.5009 H   0  0  0  0  0  0  0  0  0  0  0  0
    0.1247    1.7707   -1.3823 H   0  0  0  0  0  0  0  0  0  0  0  0
    1.0268    2.0826    0.0850 H   0  0  0  0  0  0  0  0  0  0  0  0
    0.4776   -1.8767    0.7350 H   0  0  0  0  0  0  0  0  0  0  0  0
    0.2812   -0.4050    1.7027 H   0  0  0  0  0  0  0  0  0  0  0  0
    4.1074   -0.3346   -1.2588 H   0  0  0  0  0  0  0  0  0  0  0  0
    2.6097   -0.5213   -2.2882 H   0  0  0  0  0  0  0  0  0  0  0  0
    3.9307    0.3897    1.0112 H   0  0  0  0  0  0  0  0  0  0  0  0
    2.3824    1.0256    1.5804 H   0  0  0  0  0  0  0  0  0  0  0  0
    2.7399   -0.6926    1.7287 H   0  0  0  0  0  0  0  0  0  0  0  0
  1  2  1  0  0  0  0
  2  3  1  0  0  0  0
  2  4  1  0  0  0  0
  4  5  1  0  0  0  0
  5  6  1  0  0  0  0
  6  7  1  0  0  0  0
  6  8  1  0  0  0  0
  2  9  1  0  0  0  0
  8  9  1  0  0  0  0
  9 10  2  0  0  0  0
  6 11  1  0  0  0  0
 11 12  2  0  0  0  0
 11 13  1  0  0  0  0
  1 14  1  0  0  0  0
  1 15  1  0  0  0  0
  1 16  1  0  0  0  0
  4 17  1  0  0  0  0
  4 18  1  0  0  0  0
  5 19  1  0  0  0  0
  5 20  1  0  0  0  0
  8 21  1  0  0  0  0
  8 22  1  0  0  0  0
 12 23  1  0  0  0  0
 12 24  1  0  0  0  0
 13 25  1  0  0  0  0
 13 26  1  0  0  0  0
 13 27  1  0  0  0  0
M  END
