 xtb: 6.7.1 (edcfbbe)
          04062518003D

 24 24  0     0  0            999 V2000
   -2.0251   -0.2117   -0.9988 C   0  0  0  0  0  0  0  0  0  0  0  0
   -1.3494   -0.1822    0.3813 C   0  0  0  0  0  0  0  0  0  0  0  0
   -2.1104   -0.3694    1.1508 H   0  0  0  0  0  0  0  0  0  0  0  0
   -0.7035    1.1740    0.6767 C   0  0  0  0  0  0  0  0  0  0  0  0
   -1.4270    1.9488    0.3920 H   0  0  0  0  0  0  0  0  0  0  0  0
    0.5644    1.4128   -0.1691 C   0  0  0  0  0  0  0  0  0  0  0  0
    1.2332    2.0754    0.4009 H   0  0  0  0  0  0  0  0  0  0  0  0
    1.3480    0.1111   -0.4106 C   0  0  0  0  0  0  0  0  0  0  0  0
    1.1073   -0.2827   -1.4106 H   0  0  0  0  0  0  0  0  0  0  0  0
    0.9261   -0.9559    0.6082 C   0  0  0  0  0  0  0  0  0  0  0  0
    1.1229   -0.5834    1.6314 H   0  0  0  0  0  0  0  0  0  0  0  0
   -0.4376   -1.2774    0.4709 O   0  0  0  0  0  0  0  0  0  0  0  0
    1.6615   -2.1000    0.3455 O   0  0  0  0  0  0  0  0  0  0  0  0
    2.7194    0.3971   -0.3112 O   0  0  0  0  0  0  0  0  0  0  0  0
    0.1653    2.0278   -1.3679 O   0  0  0  0  0  0  0  0  0  0  0  0
   -0.4316    1.2245    2.0576 O   0  0  0  0  0  0  0  0  0  0  0  0
   -2.6845   -1.4321   -1.2184 O   0  0  0  0  0  0  0  0  0  0  0  0
   -1.2779   -0.0285   -1.7802 H   0  0  0  0  0  0  0  0  0  0  0  0
   -2.7875    0.5661   -1.0534 H   0  0  0  0  0  0  0  0  0  0  0  0
    1.3315   -2.8323    0.8879 H   0  0  0  0  0  0  0  0  0  0  0  0
    3.2144   -0.4358   -0.3403 H   0  0  0  0  0  0  0  0  0  0  0  0
    0.9495    2.3028   -1.8650 H   0  0  0  0  0  0  0  0  0  0  0  0
   -0.2750    2.1394    2.3335 H   0  0  0  0  0  0  0  0  0  0  0  0
   -2.0636   -2.1489   -1.0191 H   0  0  0  0  0  0  0  0  0  0  0  0
  1  2  1  0  0  0  0
  2  3  1  0  0  0  0
  2  4  1  0  0  0  0
  4  5  1  0  0  0  0
  4  6  1  0  0  0  0
  6  7  1  0  0  0  0
  6  8  1  0  0  0  0
  8  9  1  0  0  0  0
  8 10  1  0  0  0  0
 10 11  1  0  0  0  0
  2 12  1  0  0  0  0
 10 12  1  0  0  0  0
 10 13  1  0  0  0  0
  8 14  1  0  0  0  0
  6 15  1  0  0  0  0
  4 16  1  0  0  0  0
  1 17  1  0  0  0  0
  1 18  1  0  0  0  0
  1 19  1  0  0  0  0
 13 20  1  0  0  0  0
 14 21  1  0  0  0  0
 15 22  1  0  0  0  0
 16 23  1  0  0  0  0
 17 24  1  0  0  0  0
M  END
