 xtb: 6.7.1 (edcfbbe)
          04042523583D

 17 17  0     0  0            999 V2000
   -2.7429    0.7545   -0.3681 C   0  0  0  0  0  0  0  0  0  0  0  0
   -1.9569   -0.3621    0.3066 C   0  0  0  0  0  0  0  0  0  0  0  0
   -0.4687   -0.2208    0.1454 C   0  0  0  0  0  0  0  0  0  0  0  0
    0.3690   -1.3165    0.3593 C   0  0  0  0  0  0  0  0  0  0  0  0
    1.7352   -1.1570    0.2235 C   0  0  0  0  0  0  0  0  0  0  0  0
    2.2302    0.0921   -0.1242 C   0  0  0  0  0  0  0  0  0  0  0  0
    1.3205    1.1177   -0.3152 C   0  0  0  0  0  0  0  0  0  0  0  0
    0.0115    0.9720   -0.1846 N   0  0  0  0  0  0  0  0  0  0  0  0
   -2.4457    1.7173    0.0351 H   0  0  0  0  0  0  0  0  0  0  0  0
   -3.8082    0.6132   -0.2056 H   0  0  0  0  0  0  0  0  0  0  0  0
   -2.5481    0.7604   -1.4371 H   0  0  0  0  0  0  0  0  0  0  0  0
   -2.2622   -1.3321   -0.0920 H   0  0  0  0  0  0  0  0  0  0  0  0
   -2.1787   -0.3659    1.3781 H   0  0  0  0  0  0  0  0  0  0  0  0
   -0.0534   -2.2731    0.6269 H   0  0  0  0  0  0  0  0  0  0  0  0
    2.4045   -1.9896    0.3830 H   0  0  0  0  0  0  0  0  0  0  0  0
    3.2878    0.2633   -0.2440 H   0  0  0  0  0  0  0  0  0  0  0  0
    1.6474    2.1128   -0.5882 H   0  0  0  0  0  0  0  0  0  0  0  0
  1  2  1  0  0  0  0
  2  3  1  0  0  0  0
  3  4  4  0  0  0  0
  4  5  4  0  0  0  0
  5  6  4  0  0  0  0
  6  7  4  0  0  0  0
  3  8  4  0  0  0  0
  7  8  4  0  0  0  0
  1  9  1  0  0  0  0
  1 10  1  0  0  0  0
  1 11  1  0  0  0  0
  2 12  1  0  0  0  0
  2 13  1  0  0  0  0
  4 14  1  0  0  0  0
  5 15  1  0  0  0  0
  6 16  1  0  0  0  0
  7 17  1  0  0  0  0
M  END
