 xtb: 6.7.1 (edcfbbe)
          04032520533D

  8  7  0     0  0            999 V2000
   -1.0007   -1.6006   -0.0000 C   0  0  0  0  0  0  0  0  0  0  0  0
   -0.4689    0.0897    0.0000 S   0  0  0  0  0  0  0  0  0  0  0  0
   -0.8001    0.7699    1.2245 O   0  0  0  0  0  0  0  0  0  0  0  0
   -0.8002    0.7700   -1.2244 O   0  0  0  0  0  0  0  0  0  0  0  0
    1.5792   -0.0719   -0.0000 Cl  0  0  0  0  0  0  0  0  0  0  0  0
   -0.6079   -2.0576    0.8976 H   0  0  0  0  0  0  0  0  0  0  0  0
   -2.0835   -1.5821    0.0017 H   0  0  0  0  0  0  0  0  0  0  0  0
   -0.6106   -2.0567   -0.8993 H   0  0  0  0  0  0  0  0  0  0  0  0
  1  2  1  0  0  0  0
  2  3  2  0  0  0  0
  2  4  2  0  0  0  0
  2  5  1  0  0  0  0
  1  6  1  0  0  0  0
  1  7  1  0  0  0  0
  1  8  1  0  0  0  0
M  END
