 xtb: 6.7.1 (edcfbbe)
          04052508553D

 20 20  0     0  0            999 V2000
   -2.9823    1.2435   -0.0095 C   0  0  0  0  0  0  0  0  0  0  0  0
   -1.7459    0.3953    0.0071 C   0  0  0  0  0  0  0  0  0  0  0  0
   -1.8355   -0.9863    0.0056 C   0  0  0  0  0  0  0  0  0  0  0  0
   -0.6906   -1.7666    0.0016 C   0  0  0  0  0  0  0  0  0  0  0  0
    0.5630   -1.1823   -0.0014 C   0  0  0  0  0  0  0  0  0  0  0  0
    0.6686    0.2200   -0.0001 C   0  0  0  0  0  0  0  0  0  0  0  0
   -0.4857    0.9857    0.0037 C   0  0  0  0  0  0  0  0  0  0  0  0
    1.9447    0.7173   -0.0014 O   0  0  0  0  0  0  0  0  0  0  0  0
    2.1175    2.1192    0.0030 C   0  0  0  0  0  0  0  0  0  0  0  0
    1.7185   -1.9102   -0.0035 O   0  0  0  0  0  0  0  0  0  0  0  0
   -2.7628    2.2576    0.3122 H   0  0  0  0  0  0  0  0  0  0  0  0
   -3.3914    1.2855   -1.0185 H   0  0  0  0  0  0  0  0  0  0  0  0
   -3.7434    0.8222    0.6427 H   0  0  0  0  0  0  0  0  0  0  0  0
   -2.8035   -1.4632    0.0087 H   0  0  0  0  0  0  0  0  0  0  0  0
   -0.7735   -2.8436    0.0024 H   0  0  0  0  0  0  0  0  0  0  0  0
   -0.4174    2.0618    0.0043 H   0  0  0  0  0  0  0  0  0  0  0  0
    1.6814    2.5747   -0.8904 H   0  0  0  0  0  0  0  0  0  0  0  0
    3.1943    2.2729    0.0034 H   0  0  0  0  0  0  0  0  0  0  0  0
    1.6817    2.5690    0.8995 H   0  0  0  0  0  0  0  0  0  0  0  0
    1.5103   -2.8570   -0.0049 H   0  0  0  0  0  0  0  0  0  0  0  0
  1  2  1  0  0  0  0
  2  3  4  0  0  0  0
  3  4  4  0  0  0  0
  4  5  4  0  0  0  0
  5  6  4  0  0  0  0
  2  7  4  0  0  0  0
  6  7  4  0  0  0  0
  6  8  1  0  0  0  0
  8  9  1  0  0  0  0
  5 10  1  0  0  0  0
  1 11  1  0  0  0  0
  1 12  1  0  0  0  0
  1 13  1  0  0  0  0
  3 14  1  0  0  0  0
  4 15  1  0  0  0  0
  7 16  1  0  0  0  0
  9 17  1  0  0  0  0
  9 18  1  0  0  0  0
  9 19  1  0  0  0  0
 10 20  1  0  0  0  0
M  END
