 xtb: 6.7.1 (edcfbbe)
          04052518533D

 23 23  0     0  0            999 V2000
   -2.5832   -0.7018    0.6285 C   0  0  0  0  0  0  0  0  0  0  0  0
   -1.4690   -0.0225   -0.1179 C   0  0  0  0  0  0  0  0  0  0  0  0
   -1.5023    0.1027   -1.3260 O   0  0  0  0  0  0  0  0  0  0  0  0
   -0.3511    0.5305    0.7477 C   0  0  0  0  0  0  0  0  0  0  0  0
    0.5479    1.5156   -0.0090 C   0  0  0  0  0  0  0  0  0  0  0  0
    1.4284    0.8235   -1.0480 C   0  0  0  0  0  0  0  0  0  0  0  0
    2.2524   -0.2918   -0.4136 C   0  0  0  0  0  0  0  0  0  0  0  0
    1.3311   -1.2945    0.2731 C   0  0  0  0  0  0  0  0  0  0  0  0
    0.5085   -0.5945    1.3493 C   0  0  0  0  0  0  0  0  0  0  0  0
   -2.1952   -1.4288    1.3347 H   0  0  0  0  0  0  0  0  0  0  0  0
   -3.1352    0.0499    1.1886 H   0  0  0  0  0  0  0  0  0  0  0  0
   -3.2562   -1.1866   -0.0734 H   0  0  0  0  0  0  0  0  0  0  0  0
   -0.8378    1.0597    1.5745 H   0  0  0  0  0  0  0  0  0  0  0  0
   -0.0749    2.2630   -0.5055 H   0  0  0  0  0  0  0  0  0  0  0  0
    1.1835    2.0293    0.7156 H   0  0  0  0  0  0  0  0  0  0  0  0
    0.7949    0.4063   -1.8322 H   0  0  0  0  0  0  0  0  0  0  0  0
    2.0884    1.5612   -1.5091 H   0  0  0  0  0  0  0  0  0  0  0  0
    2.8477   -0.7925   -1.1793 H   0  0  0  0  0  0  0  0  0  0  0  0
    2.9385    0.1330    0.3231 H   0  0  0  0  0  0  0  0  0  0  0  0
    0.6641   -1.7401   -0.4692 H   0  0  0  0  0  0  0  0  0  0  0  0
    1.9189   -2.0963    0.7241 H   0  0  0  0  0  0  0  0  0  0  0  0
   -0.1174   -1.3165    1.8738 H   0  0  0  0  0  0  0  0  0  0  0  0
    1.1865   -0.1478    2.0792 H   0  0  0  0  0  0  0  0  0  0  0  0
  1  2  1  0  0  0  0
  2  3  2  0  0  0  0
  2  4  1  0  0  0  0
  4  5  1  0  0  0  0
  5  6  1  0  0  0  0
  6  7  1  0  0  0  0
  7  8  1  0  0  0  0
  4  9  1  0  0  0  0
  8  9  1  0  0  0  0
  1 10  1  0  0  0  0
  1 11  1  0  0  0  0
  1 12  1  0  0  0  0
  4 13  1  0  0  0  0
  5 14  1  0  0  0  0
  5 15  1  0  0  0  0
  6 16  1  0  0  0  0
  6 17  1  0  0  0  0
  7 18  1  0  0  0  0
  7 19  1  0  0  0  0
  8 20  1  0  0  0  0
  8 21  1  0  0  0  0
  9 22  1  0  0  0  0
  9 23  1  0  0  0  0
M  END
