 xtb: 6.7.1 (edcfbbe)
          04062518003D

 24 24  0     0  0            999 V2000
   -2.5093   -1.0286    0.3375 C   0  0  0  0  0  0  0  0  0  0  0  0
   -1.0681   -0.5387    0.5864 C   0  0  0  0  0  0  0  0  0  0  0  0
   -0.9053   -0.4666    1.6722 H   0  0  0  0  0  0  0  0  0  0  0  0
   -0.7991    0.8333   -0.0458 C   0  0  0  0  0  0  0  0  0  0  0  0
   -0.9383    0.7378   -1.1361 H   0  0  0  0  0  0  0  0  0  0  0  0
    0.6581    1.2500    0.2215 C   0  0  0  0  0  0  0  0  0  0  0  0
    0.8142    1.3627    1.3008 H   0  0  0  0  0  0  0  0  0  0  0  0
    1.5911    0.1569   -0.3039 C   0  0  0  0  0  0  0  0  0  0  0  0
    1.4832    0.0872   -1.4001 H   0  0  0  0  0  0  0  0  0  0  0  0
    1.1756   -1.2019    0.3091 C   0  0  0  0  0  0  0  0  0  0  0  0
    1.3579   -1.1574    1.3982 H   0  0  0  0  0  0  0  0  0  0  0  0
   -0.1711   -1.4918    0.0444 O   0  0  0  0  0  0  0  0  0  0  0  0
    1.9543   -2.2307   -0.1926 O   0  0  0  0  0  0  0  0  0  0  0  0
    2.9173    0.4643    0.0362 O   0  0  0  0  0  0  0  0  0  0  0  0
    0.9079    2.5218   -0.3212 O   0  0  0  0  0  0  0  0  0  0  0  0
   -1.7056    1.7689    0.4785 O   0  0  0  0  0  0  0  0  0  0  0  0
   -3.0407   -0.6513   -0.9042 O   0  0  0  0  0  0  0  0  0  0  0  0
   -3.1405   -0.6657    1.1538 H   0  0  0  0  0  0  0  0  0  0  0  0
   -2.4915   -2.1201    0.3462 H   0  0  0  0  0  0  0  0  0  0  0  0
    1.5175   -2.6018   -0.9757 H   0  0  0  0  0  0  0  0  0  0  0  0
    3.4684   -0.3203   -0.1116 H   0  0  0  0  0  0  0  0  0  0  0  0
    1.0903    2.4526   -1.2696 H   0  0  0  0  0  0  0  0  0  0  0  0
   -1.3274    2.6554    0.3599 H   0  0  0  0  0  0  0  0  0  0  0  0
   -3.2728    0.2881   -0.8696 H   0  0  0  0  0  0  0  0  0  0  0  0
  1  2  1  0  0  0  0
  2  3  1  0  0  0  0
  2  4  1  0  0  0  0
  4  5  1  0  0  0  0
  4  6  1  0  0  0  0
  6  7  1  0  0  0  0
  6  8  1  0  0  0  0
  8  9  1  0  0  0  0
  8 10  1  0  0  0  0
 10 11  1  0  0  0  0
  2 12  1  0  0  0  0
 10 12  1  0  0  0  0
 10 13  1  0  0  0  0
  8 14  1  0  0  0  0
  6 15  1  0  0  0  0
  4 16  1  0  0  0  0
  1 17  1  0  0  0  0
  1 18  1  0  0  0  0
  1 19  1  0  0  0  0
 13 20  1  0  0  0  0
 14 21  1  0  0  0  0
 15 22  1  0  0  0  0
 16 23  1  0  0  0  0
 17 24  1  0  0  0  0
M  END
