 xtb: 6.7.1 (edcfbbe)
          04062518003D

 24 24  0     0  0            999 V2000
   -2.5523   -0.8848    0.3236 C   0  0  0  0  0  0  0  0  0  0  0  0
   -1.1219   -0.4230    0.6376 C   0  0  0  0  0  0  0  0  0  0  0  0
   -0.9978   -0.3269    1.7265 H   0  0  0  0  0  0  0  0  0  0  0  0
   -0.8332    0.9397   -0.0046 C   0  0  0  0  0  0  0  0  0  0  0  0
   -1.0807    0.8742   -1.0769 H   0  0  0  0  0  0  0  0  0  0  0  0
    0.6508    1.2933    0.1607 C   0  0  0  0  0  0  0  0  0  0  0  0
    0.8459    1.4917    1.2217 H   0  0  0  0  0  0  0  0  0  0  0  0
    1.5644    0.1456   -0.2925 C   0  0  0  0  0  0  0  0  0  0  0  0
    1.5003    0.0186   -1.3851 H   0  0  0  0  0  0  0  0  0  0  0  0
    1.1177   -1.1773    0.3462 C   0  0  0  0  0  0  0  0  0  0  0  0
    1.3164   -1.1165    1.4358 H   0  0  0  0  0  0  0  0  0  0  0  0
   -0.2546   -1.4192    0.1305 O   0  0  0  0  0  0  0  0  0  0  0  0
    1.8180   -2.2052   -0.2445 O   0  0  0  0  0  0  0  0  0  0  0  0
    2.8916    0.3795    0.0991 O   0  0  0  0  0  0  0  0  0  0  0  0
    0.9736    2.4928   -0.5032 O   0  0  0  0  0  0  0  0  0  0  0  0
   -1.6499    1.8923    0.6287 O   0  0  0  0  0  0  0  0  0  0  0  0
   -2.7445   -1.1023   -1.0489 O   0  0  0  0  0  0  0  0  0  0  0  0
   -3.2457   -0.0968    0.6200 H   0  0  0  0  0  0  0  0  0  0  0  0
   -2.7626   -1.7968    0.8943 H   0  0  0  0  0  0  0  0  0  0  0  0
    1.5102   -3.0577    0.1025 H   0  0  0  0  0  0  0  0  0  0  0  0
    3.1400    1.2788   -0.1699 H   0  0  0  0  0  0  0  0  0  0  0  0
    0.8171    2.3940   -1.4549 H   0  0  0  0  0  0  0  0  0  0  0  0
   -1.3568    2.7787    0.3652 H   0  0  0  0  0  0  0  0  0  0  0  0
   -2.1090   -1.7740   -1.3383 H   0  0  0  0  0  0  0  0  0  0  0  0
  1  2  1  0  0  0  0
  2  3  1  0  0  0  0
  2  4  1  0  0  0  0
  4  5  1  0  0  0  0
  4  6  1  0  0  0  0
  6  7  1  0  0  0  0
  6  8  1  0  0  0  0
  8  9  1  0  0  0  0
  8 10  1  0  0  0  0
 10 11  1  0  0  0  0
  2 12  1  0  0  0  0
 10 12  1  0  0  0  0
 10 13  1  0  0  0  0
  8 14  1  0  0  0  0
  6 15  1  0  0  0  0
  4 16  1  0  0  0  0
  1 17  1  0  0  0  0
  1 18  1  0  0  0  0
  1 19  1  0  0  0  0
 13 20  1  0  0  0  0
 14 21  1  0  0  0  0
 15 22  1  0  0  0  0
 16 23  1  0  0  0  0
 17 24  1  0  0  0  0
M  END
