 xtb: 6.7.1 (edcfbbe)
          04032520553D

 16 16  0     0  0            999 V2000
    1.9201    0.1292   -0.5249 C   0  0  0  0  0  0  0  0  0  0  0  0
    0.7881    0.0525    0.4985 C   0  0  0  0  0  0  0  0  0  0  0  0
    1.2201   -0.0123    1.5059 H   0  0  0  0  0  0  0  0  0  0  0  0
   -0.1991    1.2228    0.3775 C   0  0  0  0  0  0  0  0  0  0  0  0
   -1.2874    0.6469   -0.5266 C   0  0  0  0  0  0  0  0  0  0  0  0
   -1.3083   -0.8131   -0.0806 C   0  0  0  0  0  0  0  0  0  0  0  0
    0.0247   -1.1426    0.2889 O   0  0  0  0  0  0  0  0  0  0  0  0
    1.5154    0.2411   -1.5273 H   0  0  0  0  0  0  0  0  0  0  0  0
    2.5660    0.9727   -0.3001 H   0  0  0  0  0  0  0  0  0  0  0  0
    2.5038   -0.7866   -0.4884 H   0  0  0  0  0  0  0  0  0  0  0  0
   -0.6144    1.4676    1.3551 H   0  0  0  0  0  0  0  0  0  0  0  0
    0.2755    2.1068   -0.0393 H   0  0  0  0  0  0  0  0  0  0  0  0
   -2.2519    1.1292   -0.3947 H   0  0  0  0  0  0  0  0  0  0  0  0
   -0.9917    0.7170   -1.5732 H   0  0  0  0  0  0  0  0  0  0  0  0
   -1.9618   -0.9461    0.7931 H   0  0  0  0  0  0  0  0  0  0  0  0
   -1.6204   -1.5069   -0.8640 H   0  0  0  0  0  0  0  0  0  0  0  0
  1  2  1  0  0  0  0
  2  3  1  0  0  0  0
  2  4  1  0  0  0  0
  4  5  1  0  0  0  0
  5  6  1  0  0  0  0
  2  7  1  0  0  0  0
  6  7  1  0  0  0  0
  1  8  1  0  0  0  0
  1  9  1  0  0  0  0
  1 10  1  0  0  0  0
  4 11  1  0  0  0  0
  4 12  1  0  0  0  0
  5 13  1  0  0  0  0
  5 14  1  0  0  0  0
  6 15  1  0  0  0  0
  6 16  1  0  0  0  0
M  END
