 xtb: 6.7.1 (edcfbbe)
          04062518003D

 24 24  0     0  0            999 V2000
   -1.7013   -1.3575   -0.5281 C   0  0  0  0  0  0  0  0  0  0  0  0
   -1.1378   -0.4936    0.6203 C   0  0  0  0  0  0  0  0  0  0  0  0
   -1.8721   -0.4636    1.4337 H   0  0  0  0  0  0  0  0  0  0  0  0
   -0.8690    0.9637    0.1669 C   0  0  0  0  0  0  0  0  0  0  0  0
   -1.2339    1.0801   -0.8608 H   0  0  0  0  0  0  0  0  0  0  0  0
    0.6385    1.2708    0.2076 C   0  0  0  0  0  0  0  0  0  0  0  0
    0.9708    1.3669    1.2484 H   0  0  0  0  0  0  0  0  0  0  0  0
    1.3965    0.0938   -0.4268 C   0  0  0  0  0  0  0  0  0  0  0  0
    0.9913   -0.0997   -1.4308 H   0  0  0  0  0  0  0  0  0  0  0  0
    1.1707   -1.1605    0.4432 C   0  0  0  0  0  0  0  0  0  0  0  0
    1.9814   -1.2131    1.1868 H   0  0  0  0  0  0  0  0  0  0  0  0
    0.0015   -1.0965    1.2216 O   0  0  0  0  0  0  0  0  0  0  0  0
    1.1929   -2.2724   -0.3984 O   0  0  0  0  0  0  0  0  0  0  0  0
    2.7601    0.4159   -0.4984 O   0  0  0  0  0  0  0  0  0  0  0  0
    0.9434    2.5030   -0.3799 O   0  0  0  0  0  0  0  0  0  0  0  0
   -1.6164    1.8917    0.9121 O   0  0  0  0  0  0  0  0  0  0  0  0
   -2.7973   -0.7591   -1.1679 O   0  0  0  0  0  0  0  0  0  0  0  0
   -1.9638   -2.3439   -0.1268 H   0  0  0  0  0  0  0  0  0  0  0  0
   -0.9408   -1.4927   -1.2997 H   0  0  0  0  0  0  0  0  0  0  0  0
    1.1790   -3.0904    0.1214 H   0  0  0  0  0  0  0  0  0  0  0  0
    3.2274   -0.2547   -1.0172 H   0  0  0  0  0  0  0  0  0  0  0  0
    0.7204    2.4874   -1.3218 H   0  0  0  0  0  0  0  0  0  0  0  0
   -1.2246    2.0052    1.7898 H   0  0  0  0  0  0  0  0  0  0  0  0
   -3.5336   -0.6730   -0.5458 H   0  0  0  0  0  0  0  0  0  0  0  0
  1  2  1  0  0  0  0
  2  3  1  0  0  0  0
  2  4  1  0  0  0  0
  4  5  1  0  0  0  0
  4  6  1  0  0  0  0
  6  7  1  0  0  0  0
  6  8  1  0  0  0  0
  8  9  1  0  0  0  0
  8 10  1  0  0  0  0
 10 11  1  0  0  0  0
  2 12  1  0  0  0  0
 10 12  1  0  0  0  0
 10 13  1  0  0  0  0
  8 14  1  0  0  0  0
  6 15  1  0  0  0  0
  4 16  1  0  0  0  0
  1 17  1  0  0  0  0
  1 18  1  0  0  0  0
  1 19  1  0  0  0  0
 13 20  1  0  0  0  0
 14 21  1  0  0  0  0
 15 22  1  0  0  0  0
 16 23  1  0  0  0  0
 17 24  1  0  0  0  0
M  END
