 xtb: 6.7.1 (edcfbbe)
          04042521533D

 17 17  0     0  0            999 V2000
   -2.7692   -0.7774   -0.0002 C   0  0  0  0  0  0  0  0  0  0  0  0
   -1.7938    0.2447    0.0001 O   0  0  0  0  0  0  0  0  0  0  0  0
   -0.4658   -0.1191    0.0001 C   0  0  0  0  0  0  0  0  0  0  0  0
    0.0141   -1.4169    0.0001 C   0  0  0  0  0  0  0  0  0  0  0  0
    1.3822   -1.6510    0.0000 C   0  0  0  0  0  0  0  0  0  0  0  0
    2.2717   -0.5952   -0.0001 C   0  0  0  0  0  0  0  0  0  0  0  0
    1.8005    0.7080   -0.0001 C   0  0  0  0  0  0  0  0  0  0  0  0
    0.4389    0.9566    0.0000 C   0  0  0  0  0  0  0  0  0  0  0  0
   -0.0110    2.2420    0.0000 O   0  0  0  0  0  0  0  0  0  0  0  0
   -2.6866   -1.3999   -0.8947 H   0  0  0  0  0  0  0  0  0  0  0  0
   -3.7259   -0.2601   -0.0002 H   0  0  0  0  0  0  0  0  0  0  0  0
   -2.6869   -1.4002    0.8942 H   0  0  0  0  0  0  0  0  0  0  0  0
   -0.6663   -2.2528    0.0001 H   0  0  0  0  0  0  0  0  0  0  0  0
    1.7430   -2.6674    0.0000 H   0  0  0  0  0  0  0  0  0  0  0  0
    3.3345   -0.7774   -0.0001 H   0  0  0  0  0  0  0  0  0  0  0  0
    2.4740    1.5499   -0.0001 H   0  0  0  0  0  0  0  0  0  0  0  0
   -0.9820    2.2347    0.0000 H   0  0  0  0  0  0  0  0  0  0  0  0
  1  2  1  0  0  0  0
  2  3  1  0  0  0  0
  3  4  4  0  0  0  0
  4  5  4  0  0  0  0
  5  6  4  0  0  0  0
  6  7  4  0  0  0  0
  3  8  4  0  0  0  0
  7  8  4  0  0  0  0
  8  9  1  0  0  0  0
  1 10  1  0  0  0  0
  1 11  1  0  0  0  0
  1 12  1  0  0  0  0
  4 13  1  0  0  0  0
  5 14  1  0  0  0  0
  6 15  1  0  0  0  0
  7 16  1  0  0  0  0
  9 17  1  0  0  0  0
M  END
