 xtb: 6.7.1 (edcfbbe)
          04032521123D

 12 11  0     0  0            999 V2000
    1.8114   -0.0407    1.0031 C   0  0  0  0  0  0  0  0  0  0  0  0
    0.9750   -0.3436   -0.2370 C   0  0  0  0  0  0  0  0  0  0  0  0
    1.0460   -1.4083   -0.5099 H   0  0  0  0  0  0  0  0  0  0  0  0
   -0.5024   -0.0918    0.0627 C   0  0  0  0  0  0  0  0  0  0  0  0
   -1.2939   -0.3404   -0.9939 F   0  0  0  0  0  0  0  0  0  0  0  0
   -0.9557   -0.8812    1.0558 F   0  0  0  0  0  0  0  0  0  0  0  0
   -0.7584    1.1680    0.4411 F   0  0  0  0  0  0  0  0  0  0  0  0
    1.2713    0.4783   -1.3355 O   0  0  0  0  0  0  0  0  0  0  0  0
    2.8509   -0.2884    0.8135 H   0  0  0  0  0  0  0  0  0  0  0  0
    1.4561   -0.6316    1.8422 H   0  0  0  0  0  0  0  0  0  0  0  0
    1.7322    1.0154    1.2495 H   0  0  0  0  0  0  0  0  0  0  0  0
    2.2136    0.4022   -1.5524 H   0  0  0  0  0  0  0  0  0  0  0  0
  1  2  1  0  0  0  0
  2  3  1  0  0  0  0
  2  4  1  0  0  0  0
  4  5  1  0  0  0  0
  4  6  1  0  0  0  0
  4  7  1  0  0  0  0
  2  8  1  0  0  0  0
  1  9  1  0  0  0  0
  1 10  1  0  0  0  0
  1 11  1  0  0  0  0
  8 12  1  0  0  0  0
M  END
