 xtb: 6.7.1 (edcfbbe)
          04052503223D

 18 18  0     0  0            999 V2000
   -3.2036    0.5627   -0.0089 C   0  0  0  0  0  0  0  0  0  0  0  0
   -2.2973   -0.5195   -0.0010 O   0  0  0  0  0  0  0  0  0  0  0  0
   -0.9484   -0.2384    0.0014 C   0  0  0  0  0  0  0  0  0  0  0  0
   -0.0979   -1.3426    0.0023 C   0  0  0  0  0  0  0  0  0  0  0  0
    1.2692   -1.1771    0.0079 C   0  0  0  0  0  0  0  0  0  0  0  0
    1.8360    0.1009    0.0109 C   0  0  0  0  0  0  0  0  0  0  0  0
    0.9764    1.1977    0.0121 C   0  0  0  0  0  0  0  0  0  0  0  0
   -0.3980    1.0357    0.0062 C   0  0  0  0  0  0  0  0  0  0  0  0
    3.2042    0.2689   -0.0611 N   0  0  0  0  0  0  0  0  0  0  0  0
   -3.0906    1.1818    0.8859 H   0  0  0  0  0  0  0  0  0  0  0  0
   -4.1925    0.1092   -0.0159 H   0  0  0  0  0  0  0  0  0  0  0  0
   -3.0768    1.1800   -0.9030 H   0  0  0  0  0  0  0  0  0  0  0  0
   -0.5376   -2.3278    0.0013 H   0  0  0  0  0  0  0  0  0  0  0  0
    1.9127   -2.0442    0.0077 H   0  0  0  0  0  0  0  0  0  0  0  0
    1.3894    2.1957    0.0151 H   0  0  0  0  0  0  0  0  0  0  0  0
   -1.0248    1.9132    0.0082 H   0  0  0  0  0  0  0  0  0  0  0  0
    3.7559   -0.5181    0.2385 H   0  0  0  0  0  0  0  0  0  0  0  0
    3.5509    1.1636    0.2438 H   0  0  0  0  0  0  0  0  0  0  0  0
  1  2  1  0  0  0  0
  2  3  1  0  0  0  0
  3  4  4  0  0  0  0
  4  5  4  0  0  0  0
  5  6  4  0  0  0  0
  6  7  4  0  0  0  0
  3  8  4  0  0  0  0
  7  8  4  0  0  0  0
  6  9  1  0  0  0  0
  1 10  1  0  0  0  0
  1 11  1  0  0  0  0
  1 12  1  0  0  0  0
  4 13  1  0  0  0  0
  5 14  1  0  0  0  0
  7 15  1  0  0  0  0
  8 16  1  0  0  0  0
  9 17  1  0  0  0  0
  9 18  1  0  0  0  0
M  END
