 xtb: 6.7.1 (edcfbbe)
          04032521083D

 18 18  0     0  0            999 V2000
   -1.8505    0.0180   -0.6191 C   0  0  0  0  0  0  0  0  0  0  0  0
   -0.8465   -0.0468    0.5292 C   0  0  0  0  0  0  0  0  0  0  0  0
    0.1114   -1.2413    0.3807 C   0  0  0  0  0  0  0  0  0  0  0  0
    1.3984   -0.6981   -0.2698 C   0  0  0  0  0  0  0  0  0  0  0  0
    1.1702    0.8040   -0.4786 C   0  0  0  0  0  0  0  0  0  0  0  0
    0.0890    1.1657    0.5363 C   0  0  0  0  0  0  0  0  0  0  0  0
   -2.4739    0.9050   -0.5300 H   0  0  0  0  0  0  0  0  0  0  0  0
   -1.3395    0.0488   -1.5773 H   0  0  0  0  0  0  0  0  0  0  0  0
   -2.4977   -0.8562   -0.6043 H   0  0  0  0  0  0  0  0  0  0  0  0
   -1.4047   -0.1115    1.4677 H   0  0  0  0  0  0  0  0  0  0  0  0
    0.3359   -1.6639    1.3601 H   0  0  0  0  0  0  0  0  0  0  0  0
   -0.3409   -2.0283   -0.2213 H   0  0  0  0  0  0  0  0  0  0  0  0
    2.2499   -0.8597    0.3915 H   0  0  0  0  0  0  0  0  0  0  0  0
    1.6147   -1.1992   -1.2123 H   0  0  0  0  0  0  0  0  0  0  0  0
    2.0821    1.3812   -0.3323 H   0  0  0  0  0  0  0  0  0  0  0  0
    0.8105    0.9978   -1.4894 H   0  0  0  0  0  0  0  0  0  0  0  0
    0.5351    1.2787    1.5257 H   0  0  0  0  0  0  0  0  0  0  0  0
   -0.4283    2.0901    0.2838 H   0  0  0  0  0  0  0  0  0  0  0  0
  1  2  1  0  0  0  0
  2  3  1  0  0  0  0
  3  4  1  0  0  0  0
  4  5  1  0  0  0  0
  2  6  1  0  0  0  0
  5  6  1  0  0  0  0
  1  7  1  0  0  0  0
  1  8  1  0  0  0  0
  1  9  1  0  0  0  0
  2 10  1  0  0  0  0
  3 11  1  0  0  0  0
  3 12  1  0  0  0  0
  4 13  1  0  0  0  0
  4 14  1  0  0  0  0
  5 15  1  0  0  0  0
  5 16  1  0  0  0  0
  6 17  1  0  0  0  0
  6 18  1  0  0  0  0
M  END
