 xtb: 6.7.1 (edcfbbe)
          04062518003D

 24 24  0     0  0            999 V2000
   -2.5491   -0.6703   -0.3783 C   0  0  0  0  0  0  0  0  0  0  0  0
   -1.1738   -0.3106    0.1984 C   0  0  0  0  0  0  0  0  0  0  0  0
   -1.2361   -0.2506    1.2975 H   0  0  0  0  0  0  0  0  0  0  0  0
   -0.6980    1.0522   -0.3249 C   0  0  0  0  0  0  0  0  0  0  0  0
   -0.6805    1.0275   -1.4250 H   0  0  0  0  0  0  0  0  0  0  0  0
    0.7285    1.3197    0.1723 C   0  0  0  0  0  0  0  0  0  0  0  0
    0.6991    1.4298    1.2708 H   0  0  0  0  0  0  0  0  0  0  0  0
    1.6518    0.1453   -0.1878 C   0  0  0  0  0  0  0  0  0  0  0  0
    1.7355    0.0682   -1.2773 H   0  0  0  0  0  0  0  0  0  0  0  0
    1.0338   -1.1619    0.3356 C   0  0  0  0  0  0  0  0  0  0  0  0
    0.9889   -1.1150    1.4493 H   0  0  0  0  0  0  0  0  0  0  0  0
   -0.2678   -1.3328   -0.1672 O   0  0  0  0  0  0  0  0  0  0  0  0
    1.7996   -2.2327   -0.0770 O   0  0  0  0  0  0  0  0  0  0  0  0
    2.9531    0.3748    0.2829 O   0  0  0  0  0  0  0  0  0  0  0  0
    1.1774    2.5202   -0.4079 O   0  0  0  0  0  0  0  0  0  0  0  0
   -1.5906    2.0329    0.1336 O   0  0  0  0  0  0  0  0  0  0  0  0
   -3.1700   -1.7392    0.2843 O   0  0  0  0  0  0  0  0  0  0  0  0
   -2.4135   -0.9962   -1.4110 H   0  0  0  0  0  0  0  0  0  0  0  0
   -3.1707    0.2312   -0.3544 H   0  0  0  0  0  0  0  0  0  0  0  0
    1.2502   -3.0328   -0.0845 H   0  0  0  0  0  0  0  0  0  0  0  0
    3.0141    0.1673    1.2267 H   0  0  0  0  0  0  0  0  0  0  0  0
    2.1434    2.5579   -0.3315 H   0  0  0  0  0  0  0  0  0  0  0  0
   -1.2414    2.9023   -0.1168 H   0  0  0  0  0  0  0  0  0  0  0  0
   -3.4039   -1.4722    1.1848 H   0  0  0  0  0  0  0  0  0  0  0  0
  1  2  1  0  0  0  0
  2  3  1  0  0  0  0
  2  4  1  0  0  0  0
  4  5  1  0  0  0  0
  4  6  1  0  0  0  0
  6  7  1  0  0  0  0
  6  8  1  0  0  0  0
  8  9  1  0  0  0  0
  8 10  1  0  0  0  0
 10 11  1  0  0  0  0
  2 12  1  0  0  0  0
 10 12  1  0  0  0  0
 10 13  1  0  0  0  0
  8 14  1  0  0  0  0
  6 15  1  0  0  0  0
  4 16  1  0  0  0  0
  1 17  1  0  0  0  0
  1 18  1  0  0  0  0
  1 19  1  0  0  0  0
 13 20  1  0  0  0  0
 14 21  1  0  0  0  0
 15 22  1  0  0  0  0
 16 23  1  0  0  0  0
 17 24  1  0  0  0  0
M  END
