 xtb: 6.7.1 (edcfbbe)
          04052508553D

 20 20  0     0  0            999 V2000
   -2.9730    1.2547   -0.0008 C   0  0  0  0  0  0  0  0  0  0  0  0
   -1.7490    0.3890    0.0005 C   0  0  0  0  0  0  0  0  0  0  0  0
   -1.8366   -0.9905    0.0005 C   0  0  0  0  0  0  0  0  0  0  0  0
   -0.6889   -1.7698    0.0001 C   0  0  0  0  0  0  0  0  0  0  0  0
    0.5628   -1.1842   -0.0001 C   0  0  0  0  0  0  0  0  0  0  0  0
    0.6666    0.2197   -0.0000 C   0  0  0  0  0  0  0  0  0  0  0  0
   -0.4877    0.9823    0.0003 C   0  0  0  0  0  0  0  0  0  0  0  0
    1.9421    0.7177   -0.0002 O   0  0  0  0  0  0  0  0  0  0  0  0
    2.1131    2.1201    0.0004 C   0  0  0  0  0  0  0  0  0  0  0  0
    1.7198   -1.9091   -0.0003 O   0  0  0  0  0  0  0  0  0  0  0  0
   -2.9743    1.9110    0.8677 H   0  0  0  0  0  0  0  0  0  0  0  0
   -2.9934    1.8799   -0.8918 H   0  0  0  0  0  0  0  0  0  0  0  0
   -3.8736    0.6479    0.0192 H   0  0  0  0  0  0  0  0  0  0  0  0
   -2.8024   -1.4721    0.0006 H   0  0  0  0  0  0  0  0  0  0  0  0
   -0.7709   -2.8468    0.0002 H   0  0  0  0  0  0  0  0  0  0  0  0
   -0.4252    2.0588    0.0004 H   0  0  0  0  0  0  0  0  0  0  0  0
    1.6769    2.5713    0.8959 H   0  0  0  0  0  0  0  0  0  0  0  0
    1.6756    2.5724   -0.8939 H   0  0  0  0  0  0  0  0  0  0  0  0
    3.1896    2.2752   -0.0003 H   0  0  0  0  0  0  0  0  0  0  0  0
    1.5144   -2.8564   -0.0006 H   0  0  0  0  0  0  0  0  0  0  0  0
  1  2  1  0  0  0  0
  2  3  4  0  0  0  0
  3  4  4  0  0  0  0
  4  5  4  0  0  0  0
  5  6  4  0  0  0  0
  2  7  4  0  0  0  0
  6  7  4  0  0  0  0
  6  8  1  0  0  0  0
  8  9  1  0  0  0  0
  5 10  1  0  0  0  0
  1 11  1  0  0  0  0
  1 12  1  0  0  0  0
  1 13  1  0  0  0  0
  3 14  1  0  0  0  0
  4 15  1  0  0  0  0
  7 16  1  0  0  0  0
  9 17  1  0  0  0  0
  9 18  1  0  0  0  0
  9 19  1  0  0  0  0
 10 20  1  0  0  0  0
M  END
