 xtb: 6.7.1 (edcfbbe)
          04032521453D

 16 16  0     0  0            999 V2000
   -2.5354   -1.0209   -0.0008 C   0  0  0  0  0  0  0  0  0  0  0  0
   -1.2368   -0.2726    0.0011 C   0  0  0  0  0  0  0  0  0  0  0  0
   -1.2022    1.1145    0.0003 C   0  0  0  0  0  0  0  0  0  0  0  0
    0.0098    1.7853   -0.0002 C   0  0  0  0  0  0  0  0  0  0  0  0
    1.2001    1.0861   -0.0005 C   0  0  0  0  0  0  0  0  0  0  0  0
    1.1779   -0.3060   -0.0002 C   0  0  0  0  0  0  0  0  0  0  0  0
   -0.0377   -0.9750    0.0008 C   0  0  0  0  0  0  0  0  0  0  0  0
    2.3707   -0.9651   -0.0001 O   0  0  0  0  0  0  0  0  0  0  0  0
   -2.6229   -1.6206   -0.9053 H   0  0  0  0  0  0  0  0  0  0  0  0
   -2.5858   -1.6945    0.8527 H   0  0  0  0  0  0  0  0  0  0  0  0
   -3.3769   -0.3354    0.0446 H   0  0  0  0  0  0  0  0  0  0  0  0
   -2.1256    1.6742    0.0012 H   0  0  0  0  0  0  0  0  0  0  0  0
    0.0275    2.8647    0.0002 H   0  0  0  0  0  0  0  0  0  0  0  0
    2.1529    1.5916   -0.0006 H   0  0  0  0  0  0  0  0  0  0  0  0
   -0.0574   -2.0562    0.0016 H   0  0  0  0  0  0  0  0  0  0  0  0
    2.2284   -1.9237   -0.0005 H   0  0  0  0  0  0  0  0  0  0  0  0
  1  2  1  0  0  0  0
  2  3  4  0  0  0  0
  3  4  4  0  0  0  0
  4  5  4  0  0  0  0
  5  6  4  0  0  0  0
  2  7  4  0  0  0  0
  6  7  4  0  0  0  0
  6  8  1  0  0  0  0
  1  9  1  0  0  0  0
  1 10  1  0  0  0  0
  1 11  1  0  0  0  0
  3 12  1  0  0  0  0
  4 13  1  0  0  0  0
  5 14  1  0  0  0  0
  7 15  1  0  0  0  0
  8 16  1  0  0  0  0
M  END
