 xtb: 6.7.1 (edcfbbe)
          04062518003D

 24 24  0     0  0            999 V2000
   -1.8127   -1.0546   -0.6731 C   0  0  0  0  0  0  0  0  0  0  0  0
   -1.0386   -0.4907    0.5281 C   0  0  0  0  0  0  0  0  0  0  0  0
   -1.6948   -0.5619    1.4040 H   0  0  0  0  0  0  0  0  0  0  0  0
   -0.7062    0.9972    0.3425 C   0  0  0  0  0  0  0  0  0  0  0  0
   -1.5492    1.4443   -0.1988 H   0  0  0  0  0  0  0  0  0  0  0  0
    0.5908    1.2358   -0.4698 C   0  0  0  0  0  0  0  0  0  0  0  0
    0.8756    2.2894   -0.3425 H   0  0  0  0  0  0  0  0  0  0  0  0
    1.7161    0.3622    0.1046 C   0  0  0  0  0  0  0  0  0  0  0  0
    2.5963    0.4251   -0.5447 H   0  0  0  0  0  0  0  0  0  0  0  0
    1.2632   -1.1120    0.1424 C   0  0  0  0  0  0  0  0  0  0  0  0
    2.0097   -1.6851    0.7108 H   0  0  0  0  0  0  0  0  0  0  0  0
    0.0803   -1.2974    0.8759 O   0  0  0  0  0  0  0  0  0  0  0  0
    1.1609   -1.5711   -1.1748 O   0  0  0  0  0  0  0  0  0  0  0  0
    2.1267    0.7921    1.3733 O   0  0  0  0  0  0  0  0  0  0  0  0
    0.4100    1.0428   -1.8499 O   0  0  0  0  0  0  0  0  0  0  0  0
   -0.5763    1.5624    1.6334 O   0  0  0  0  0  0  0  0  0  0  0  0
   -3.0756   -0.4280   -0.6947 O   0  0  0  0  0  0  0  0  0  0  0  0
   -1.9156   -2.1373   -0.5255 H   0  0  0  0  0  0  0  0  0  0  0  0
   -1.2699   -0.8618   -1.6039 H   0  0  0  0  0  0  0  0  0  0  0  0
    1.0822   -2.5367   -1.1928 H   0  0  0  0  0  0  0  0  0  0  0  0
    1.3396    0.8753    1.9419 H   0  0  0  0  0  0  0  0  0  0  0  0
    0.6370    0.1247   -2.0714 H   0  0  0  0  0  0  0  0  0  0  0  0
   -0.6829    2.5226    1.5856 H   0  0  0  0  0  0  0  0  0  0  0  0
   -3.5813   -0.7587   -1.4504 H   0  0  0  0  0  0  0  0  0  0  0  0
  1  2  1  0  0  0  0
  2  3  1  0  0  0  0
  2  4  1  0  0  0  0
  4  5  1  0  0  0  0
  4  6  1  0  0  0  0
  6  7  1  0  0  0  0
  6  8  1  0  0  0  0
  8  9  1  0  0  0  0
  8 10  1  0  0  0  0
 10 11  1  0  0  0  0
  2 12  1  0  0  0  0
 10 12  1  0  0  0  0
 10 13  1  0  0  0  0
  8 14  1  0  0  0  0
  6 15  1  0  0  0  0
  4 16  1  0  0  0  0
  1 17  1  0  0  0  0
  1 18  1  0  0  0  0
  1 19  1  0  0  0  0
 13 20  1  0  0  0  0
 14 21  1  0  0  0  0
 15 22  1  0  0  0  0
 16 23  1  0  0  0  0
 17 24  1  0  0  0  0
M  END
