 xtb: 6.7.1 (edcfbbe)
          04062505073D

 29 29  0     0  0            999 V2000
   -3.3709   -0.0251   -0.6717 C   0  0  0  0  0  0  0  0  0  0  0  0
   -1.8498   -0.0625   -0.5434 C   0  0  0  0  0  0  0  0  0  0  0  0
   -1.4226    0.1966   -1.5173 H   0  0  0  0  0  0  0  0  0  0  0  0
   -1.3597   -1.4605   -0.1259 C   0  0  0  0  0  0  0  0  0  0  0  0
   -0.2974   -1.4203    0.9750 C   0  0  0  0  0  0  0  0  0  0  0  0
    0.7597   -0.3257    0.8030 C   0  0  0  0  0  0  0  0  0  0  0  0
    1.2767   -0.2230    1.7662 H   0  0  0  0  0  0  0  0  0  0  0  0
    0.1185    1.0198    0.5554 C   0  0  0  0  0  0  0  0  0  0  0  0
    0.7600    2.0507    0.4595 O   0  0  0  0  0  0  0  0  0  0  0  0
   -1.3799    1.0037    0.4552 C   0  0  0  0  0  0  0  0  0  0  0  0
    1.8739   -0.6559   -0.2260 C   0  0  0  0  0  0  0  0  0  0  0  0
    1.4938   -0.3288   -1.6686 C   0  0  0  0  0  0  0  0  0  0  0  0
    3.1620    0.0815    0.1390 C   0  0  0  0  0  0  0  0  0  0  0  0
   -3.8393   -0.2372    0.2866 H   0  0  0  0  0  0  0  0  0  0  0  0
   -3.7034    0.9540   -1.0082 H   0  0  0  0  0  0  0  0  0  0  0  0
   -3.7047   -0.7667   -1.3931 H   0  0  0  0  0  0  0  0  0  0  0  0
   -2.2038   -2.0438    0.2460 H   0  0  0  0  0  0  0  0  0  0  0  0
   -0.9704   -1.9876   -0.9968 H   0  0  0  0  0  0  0  0  0  0  0  0
   -0.7938   -1.2587    1.9341 H   0  0  0  0  0  0  0  0  0  0  0  0
    0.1983   -2.3905    1.0318 H   0  0  0  0  0  0  0  0  0  0  0  0
   -1.7876    0.7821    1.4435 H   0  0  0  0  0  0  0  0  0  0  0  0
   -1.7269    1.9940    0.1551 H   0  0  0  0  0  0  0  0  0  0  0  0
    2.0626   -1.7330   -0.1562 H   0  0  0  0  0  0  0  0  0  0  0  0
    0.6276   -0.8958   -1.9933 H   0  0  0  0  0  0  0  0  0  0  0  0
    2.3233   -0.5738   -2.3283 H   0  0  0  0  0  0  0  0  0  0  0  0
    1.2812    0.7332   -1.7751 H   0  0  0  0  0  0  0  0  0  0  0  0
    3.9439   -0.1430   -0.5825 H   0  0  0  0  0  0  0  0  0  0  0  0
    3.5119   -0.2115    1.1265 H   0  0  0  0  0  0  0  0  0  0  0  0
    2.9892    1.1554    0.1378 H   0  0  0  0  0  0  0  0  0  0  0  0
  1  2  1  0  0  0  0
  2  3  1  0  0  0  0
  2  4  1  0  0  0  0
  4  5  1  0  0  0  0
  5  6  1  0  0  0  0
  6  7  1  0  0  0  0
  6  8  1  0  0  0  0
  8  9  2  0  0  0  0
  2 10  1  0  0  0  0
  8 10  1  0  0  0  0
  6 11  1  0  0  0  0
 11 12  1  0  0  0  0
 11 13  1  0  0  0  0
  1 14  1  0  0  0  0
  1 15  1  0  0  0  0
  1 16  1  0  0  0  0
  4 17  1  0  0  0  0
  4 18  1  0  0  0  0
  5 19  1  0  0  0  0
  5 20  1  0  0  0  0
 10 21  1  0  0  0  0
 10 22  1  0  0  0  0
 11 23  1  0  0  0  0
 12 24  1  0  0  0  0
 12 25  1  0  0  0  0
 12 26  1  0  0  0  0
 13 27  1  0  0  0  0
 13 28  1  0  0  0  0
 13 29  1  0  0  0  0
M  END
