 xtb: 6.7.1 (edcfbbe)
          04032521433D

  5  4  0     0  0            999 V2000
    0.4408   -0.0000   -0.4025 C   0  0  0  0  0  0  0  0  0  0  0  0
    1.0398    1.0763    0.1259 F   0  0  0  0  0  0  0  0  0  0  0  0
    1.0403   -1.0761    0.1260 F   0  0  0  0  0  0  0  0  0  0  0  0
   -1.2802   -0.0001    0.0438 Cl  0  0  0  0  0  0  0  0  0  0  0  0
    0.5696   -0.0001   -1.4929 H   0  0  0  0  0  0  0  0  0  0  0  0
  1  2  1  0  0  0  0
  1  3  1  0  0  0  0
  1  4  1  0  0  0  0
  1  5  1  0  0  0  0
M  END
