 xtb: 6.7.1 (edcfbbe)
          04062518003D

 24 24  0     0  0            999 V2000
   -2.4376   -1.0793   -0.2890 C   0  0  0  0  0  0  0  0  0  0  0  0
   -1.0678   -0.5720    0.1698 C   0  0  0  0  0  0  0  0  0  0  0  0
   -1.0854   -0.5193    1.2716 H   0  0  0  0  0  0  0  0  0  0  0  0
   -0.7290    0.8182   -0.3980 C   0  0  0  0  0  0  0  0  0  0  0  0
   -0.6284    0.7253   -1.4872 H   0  0  0  0  0  0  0  0  0  0  0  0
    0.6243    1.2440    0.1919 C   0  0  0  0  0  0  0  0  0  0  0  0
    0.5453    1.3188    1.2842 H   0  0  0  0  0  0  0  0  0  0  0  0
    1.6919    0.1836   -0.1397 C   0  0  0  0  0  0  0  0  0  0  0  0
    1.8886    0.1775   -1.2231 H   0  0  0  0  0  0  0  0  0  0  0  0
    1.2098   -1.2242    0.2449 C   0  0  0  0  0  0  0  0  0  0  0  0
    1.2047   -1.2893    1.3531 H   0  0  0  0  0  0  0  0  0  0  0  0
   -0.0866   -1.5003   -0.2452 O   0  0  0  0  0  0  0  0  0  0  0  0
    2.0688   -2.1439   -0.3132 O   0  0  0  0  0  0  0  0  0  0  0  0
    2.8754    0.4335    0.5722 O   0  0  0  0  0  0  0  0  0  0  0  0
    1.0443    2.5170   -0.2325 O   0  0  0  0  0  0  0  0  0  0  0  0
   -1.7355    1.7687   -0.1985 O   0  0  0  0  0  0  0  0  0  0  0  0
   -3.4026   -0.5684    0.5986 O   0  0  0  0  0  0  0  0  0  0  0  0
   -2.4125   -2.1757   -0.2623 H   0  0  0  0  0  0  0  0  0  0  0  0
   -2.6255   -0.7481   -1.3157 H   0  0  0  0  0  0  0  0  0  0  0  0
    1.7331   -3.0416   -0.1597 H   0  0  0  0  0  0  0  0  0  0  0  0
    3.1140    1.3662    0.4433 H   0  0  0  0  0  0  0  0  0  0  0  0
    0.8550    2.6322   -1.1748 H   0  0  0  0  0  0  0  0  0  0  0  0
   -1.9836    1.8038    0.7363 H   0  0  0  0  0  0  0  0  0  0  0  0
   -4.2868   -0.7897    0.2750 H   0  0  0  0  0  0  0  0  0  0  0  0
  1  2  1  0  0  0  0
  2  3  1  0  0  0  0
  2  4  1  0  0  0  0
  4  5  1  0  0  0  0
  4  6  1  0  0  0  0
  6  7  1  0  0  0  0
  6  8  1  0  0  0  0
  8  9  1  0  0  0  0
  8 10  1  0  0  0  0
 10 11  1  0  0  0  0
  2 12  1  0  0  0  0
 10 12  1  0  0  0  0
 10 13  1  0  0  0  0
  8 14  1  0  0  0  0
  6 15  1  0  0  0  0
  4 16  1  0  0  0  0
  1 17  1  0  0  0  0
  1 18  1  0  0  0  0
  1 19  1  0  0  0  0
 13 20  1  0  0  0  0
 14 21  1  0  0  0  0
 15 22  1  0  0  0  0
 16 23  1  0  0  0  0
 17 24  1  0  0  0  0
M  END
