 xtb: 6.7.1 (edcfbbe)
          04062518003D

 24 24  0     0  0            999 V2000
   -2.0593   -1.3720   -0.1149 C   0  0  0  0  0  0  0  0  0  0  0  0
   -0.9928   -0.5140    0.5922 C   0  0  0  0  0  0  0  0  0  0  0  0
   -1.3973   -0.1496    1.5460 H   0  0  0  0  0  0  0  0  0  0  0  0
   -0.6392    0.7187   -0.2616 C   0  0  0  0  0  0  0  0  0  0  0  0
   -0.5542    0.4388   -1.3212 H   0  0  0  0  0  0  0  0  0  0  0  0
    0.7195    1.2666    0.1844 C   0  0  0  0  0  0  0  0  0  0  0  0
    0.6543    1.4981    1.2596 H   0  0  0  0  0  0  0  0  0  0  0  0
    1.8058    0.1968   -0.0494 C   0  0  0  0  0  0  0  0  0  0  0  0
    2.1841    0.3115   -1.0706 H   0  0  0  0  0  0  0  0  0  0  0  0
    1.2326   -1.2338    0.0652 C   0  0  0  0  0  0  0  0  0  0  0  0
    1.9933   -1.8701    0.5398 H   0  0  0  0  0  0  0  0  0  0  0  0
    0.1392   -1.3018    0.9480 O   0  0  0  0  0  0  0  0  0  0  0  0
    0.9141   -1.6880   -1.2114 O   0  0  0  0  0  0  0  0  0  0  0  0
    2.9125    0.3837    0.7944 O   0  0  0  0  0  0  0  0  0  0  0  0
    0.9966    2.4343   -0.5447 O   0  0  0  0  0  0  0  0  0  0  0  0
   -1.6147    1.7146   -0.0898 O   0  0  0  0  0  0  0  0  0  0  0  0
   -3.2771   -0.6800   -0.2510 O   0  0  0  0  0  0  0  0  0  0  0  0
   -2.1859   -2.3076    0.4404 H   0  0  0  0  0  0  0  0  0  0  0  0
   -1.7240   -1.6031   -1.1288 H   0  0  0  0  0  0  0  0  0  0  0  0
    0.8040   -2.6514   -1.2106 H   0  0  0  0  0  0  0  0  0  0  0  0
    2.6439    0.2785    1.7194 H   0  0  0  0  0  0  0  0  0  0  0  0
    1.8448    2.7975   -0.2500 H   0  0  0  0  0  0  0  0  0  0  0  0
   -2.4504    1.3823   -0.4576 H   0  0  0  0  0  0  0  0  0  0  0  0
   -3.7288   -0.6478    0.6043 H   0  0  0  0  0  0  0  0  0  0  0  0
  1  2  1  0  0  0  0
  2  3  1  0  0  0  0
  2  4  1  0  0  0  0
  4  5  1  0  0  0  0
  4  6  1  0  0  0  0
  6  7  1  0  0  0  0
  6  8  1  0  0  0  0
  8  9  1  0  0  0  0
  8 10  1  0  0  0  0
 10 11  1  0  0  0  0
  2 12  1  0  0  0  0
 10 12  1  0  0  0  0
 10 13  1  0  0  0  0
  8 14  1  0  0  0  0
  6 15  1  0  0  0  0
  4 16  1  0  0  0  0
  1 17  1  0  0  0  0
  1 18  1  0  0  0  0
  1 19  1  0  0  0  0
 13 20  1  0  0  0  0
 14 21  1  0  0  0  0
 15 22  1  0  0  0  0
 16 23  1  0  0  0  0
 17 24  1  0  0  0  0
M  END
