 xtb: 6.7.1 (edcfbbe)
          04062518003D

 24 24  0     0  0            999 V2000
   -2.5439   -0.9120    0.2872 C   0  0  0  0  0  0  0  0  0  0  0  0
   -1.1168   -0.4707    0.6173 C   0  0  0  0  0  0  0  0  0  0  0  0
   -1.0133   -0.3977    1.7123 H   0  0  0  0  0  0  0  0  0  0  0  0
   -0.8209    0.9124    0.0216 C   0  0  0  0  0  0  0  0  0  0  0  0
   -1.0400    0.8845   -1.0553 H   0  0  0  0  0  0  0  0  0  0  0  0
    0.6591    1.2677    0.2074 C   0  0  0  0  0  0  0  0  0  0  0  0
    0.8628    1.3964    1.2834 H   0  0  0  0  0  0  0  0  0  0  0  0
    1.5429    0.1343   -0.3149 C   0  0  0  0  0  0  0  0  0  0  0  0
    1.3892    0.0224   -1.3986 H   0  0  0  0  0  0  0  0  0  0  0  0
    1.1214   -1.1816    0.3563 C   0  0  0  0  0  0  0  0  0  0  0  0
    1.2960   -1.0924    1.4519 H   0  0  0  0  0  0  0  0  0  0  0  0
   -0.2356   -1.4584    0.1231 O   0  0  0  0  0  0  0  0  0  0  0  0
    1.8767   -2.2061   -0.1823 O   0  0  0  0  0  0  0  0  0  0  0  0
    2.8791    0.4571   -0.0267 O   0  0  0  0  0  0  0  0  0  0  0  0
    0.8983    2.4745   -0.4733 O   0  0  0  0  0  0  0  0  0  0  0  0
   -1.6470    1.8404    0.6765 O   0  0  0  0  0  0  0  0  0  0  0  0
   -2.7292   -0.8898   -1.1079 O   0  0  0  0  0  0  0  0  0  0  0  0
   -3.2260   -0.2141    0.7862 H   0  0  0  0  0  0  0  0  0  0  0  0
   -2.6844   -1.9247    0.6823 H   0  0  0  0  0  0  0  0  0  0  0  0
    1.4330   -3.0533   -0.0212 H   0  0  0  0  0  0  0  0  0  0  0  0
    3.4453   -0.2827   -0.2924 H   0  0  0  0  0  0  0  0  0  0  0  0
    1.8502    2.6539   -0.4546 H   0  0  0  0  0  0  0  0  0  0  0  0
   -1.4312    2.7235    0.3397 H   0  0  0  0  0  0  0  0  0  0  0  0
   -3.6259   -1.1920   -1.3101 H   0  0  0  0  0  0  0  0  0  0  0  0
  1  2  1  0  0  0  0
  2  3  1  0  0  0  0
  2  4  1  0  0  0  0
  4  5  1  0  0  0  0
  4  6  1  0  0  0  0
  6  7  1  0  0  0  0
  6  8  1  0  0  0  0
  8  9  1  0  0  0  0
  8 10  1  0  0  0  0
 10 11  1  0  0  0  0
  2 12  1  0  0  0  0
 10 12  1  0  0  0  0
 10 13  1  0  0  0  0
  8 14  1  0  0  0  0
  6 15  1  0  0  0  0
  4 16  1  0  0  0  0
  1 17  1  0  0  0  0
  1 18  1  0  0  0  0
  1 19  1  0  0  0  0
 13 20  1  0  0  0  0
 14 21  1  0  0  0  0
 15 22  1  0  0  0  0
 16 23  1  0  0  0  0
 17 24  1  0  0  0  0
M  END
