 xtb: 6.7.1 (edcfbbe)
          04062518003D

 24 24  0     0  0            999 V2000
   -2.1988   -0.9829   -0.4288 C   0  0  0  0  0  0  0  0  0  0  0  0
   -1.1811   -0.1929    0.4110 C   0  0  0  0  0  0  0  0  0  0  0  0
   -1.6892    0.2327    1.2854 H   0  0  0  0  0  0  0  0  0  0  0  0
   -0.6016    0.9691   -0.4053 C   0  0  0  0  0  0  0  0  0  0  0  0
   -0.4470    0.6495   -1.4450 H   0  0  0  0  0  0  0  0  0  0  0  0
    0.7698    1.3283    0.1949 C   0  0  0  0  0  0  0  0  0  0  0  0
    0.6693    1.4405    1.2833 H   0  0  0  0  0  0  0  0  0  0  0  0
    1.7150    0.1571   -0.0904 C   0  0  0  0  0  0  0  0  0  0  0  0
    1.9676    0.1724   -1.1609 H   0  0  0  0  0  0  0  0  0  0  0  0
    1.0045   -1.1800    0.2045 C   0  0  0  0  0  0  0  0  0  0  0  0
    1.6651   -1.7669    0.8587 H   0  0  0  0  0  0  0  0  0  0  0  0
   -0.1649   -1.0254    0.9641 O   0  0  0  0  0  0  0  0  0  0  0  0
    0.7734   -1.8244   -1.0084 O   0  0  0  0  0  0  0  0  0  0  0  0
    2.8772    0.2145    0.6931 O   0  0  0  0  0  0  0  0  0  0  0  0
    1.3254    2.4871   -0.3796 O   0  0  0  0  0  0  0  0  0  0  0  0
   -1.5156    2.0364   -0.3429 O   0  0  0  0  0  0  0  0  0  0  0  0
   -2.7781   -2.0600    0.2604 O   0  0  0  0  0  0  0  0  0  0  0  0
   -1.7001   -1.4176   -1.2972 H   0  0  0  0  0  0  0  0  0  0  0  0
   -2.9645   -0.2741   -0.7717 H   0  0  0  0  0  0  0  0  0  0  0  0
    0.4805   -2.7347   -0.8460 H   0  0  0  0  0  0  0  0  0  0  0  0
    3.3318    1.0516    0.5109 H   0  0  0  0  0  0  0  0  0  0  0  0
    0.8650    3.2661   -0.0357 H   0  0  0  0  0  0  0  0  0  0  0  0
   -1.3197    2.6685   -1.0498 H   0  0  0  0  0  0  0  0  0  0  0  0
   -3.2086   -1.7367    1.0642 H   0  0  0  0  0  0  0  0  0  0  0  0
  1  2  1  0  0  0  0
  2  3  1  0  0  0  0
  2  4  1  0  0  0  0
  4  5  1  0  0  0  0
  4  6  1  0  0  0  0
  6  7  1  0  0  0  0
  6  8  1  0  0  0  0
  8  9  1  0  0  0  0
  8 10  1  0  0  0  0
 10 11  1  0  0  0  0
  2 12  1  0  0  0  0
 10 12  1  0  0  0  0
 10 13  1  0  0  0  0
  8 14  1  0  0  0  0
  6 15  1  0  0  0  0
  4 16  1  0  0  0  0
  1 17  1  0  0  0  0
  1 18  1  0  0  0  0
  1 19  1  0  0  0  0
 13 20  1  0  0  0  0
 14 21  1  0  0  0  0
 15 22  1  0  0  0  0
 16 23  1  0  0  0  0
 17 24  1  0  0  0  0
M  END
