 xtb: 6.7.1 (edcfbbe)
          04042513183D

 12 11  0     0  0            999 V2000
   -1.8975    0.0397    0.4515 C   0  0  0  0  0  0  0  0  0  0  0  0
   -0.8733   -0.1672   -0.6665 C   0  0  0  0  0  0  0  0  0  0  0  0
    0.5321   -0.0727   -0.1067 C   0  0  0  0  0  0  0  0  0  0  0  0
    1.1935   -1.0622    0.1958 O   0  0  0  0  0  0  0  0  0  0  0  0
    0.9963    1.1721    0.0585 N   0  0  0  0  0  0  0  0  0  0  0  0
   -2.9039   -0.0712    0.0575 H   0  0  0  0  0  0  0  0  0  0  0  0
   -1.7484   -0.6999    1.2349 H   0  0  0  0  0  0  0  0  0  0  0  0
   -1.8012    1.0295    0.8896 H   0  0  0  0  0  0  0  0  0  0  0  0
   -1.0122    0.5804   -1.4469 H   0  0  0  0  0  0  0  0  0  0  0  0
   -0.9983   -1.1607   -1.0976 H   0  0  0  0  0  0  0  0  0  0  0  0
    0.4417    1.9737   -0.1864 H   0  0  0  0  0  0  0  0  0  0  0  0
    1.9100    1.3071    0.4599 H   0  0  0  0  0  0  0  0  0  0  0  0
  1  2  1  0  0  0  0
  2  3  1  0  0  0  0
  3  4  2  0  0  0  0
  3  5  4  0  0  0  0
  1  6  1  0  0  0  0
  1  7  1  0  0  0  0
  1  8  1  0  0  0  0
  2  9  1  0  0  0  0
  2 10  1  0  0  0  0
  5 11  1  0  0  0  0
  5 12  1  0  0  0  0
M  END
