 xtb: 6.7.1 (edcfbbe)
          04052502593D

 19 19  0     0  0            999 V2000
   -2.6157    1.5604    0.1136 C   0  0  0  0  0  0  0  0  0  0  0  0
   -1.9673    0.1863   -0.0093 C   0  0  0  0  0  0  0  0  0  0  0  0
   -0.4562    0.1807    0.0116 C   0  0  0  0  0  0  0  0  0  0  0  0
    0.3020    1.3356    0.1356 C   0  0  0  0  0  0  0  0  0  0  0  0
    1.6861    1.2975    0.1516 C   0  0  0  0  0  0  0  0  0  0  0  0
    2.3443    0.0864    0.0420 C   0  0  0  0  0  0  0  0  0  0  0  0
    1.6130   -1.0788   -0.0827 C   0  0  0  0  0  0  0  0  0  0  0  0
    0.2239   -1.0394   -0.0985 C   0  0  0  0  0  0  0  0  0  0  0  0
   -0.4200   -2.2375   -0.2249 O   0  0  0  0  0  0  0  0  0  0  0  0
   -2.3440    2.0359    1.0526 H   0  0  0  0  0  0  0  0  0  0  0  0
   -3.6976    1.4528    0.0875 H   0  0  0  0  0  0  0  0  0  0  0  0
   -2.3183    2.2053   -0.7095 H   0  0  0  0  0  0  0  0  0  0  0  0
   -2.3049   -0.2665   -0.9480 H   0  0  0  0  0  0  0  0  0  0  0  0
   -2.3299   -0.4361    0.8162 H   0  0  0  0  0  0  0  0  0  0  0  0
   -0.1908    2.2901    0.2223 H   0  0  0  0  0  0  0  0  0  0  0  0
    2.2468    2.2145    0.2495 H   0  0  0  0  0  0  0  0  0  0  0  0
    3.4226    0.0445    0.0532 H   0  0  0  0  0  0  0  0  0  0  0  0
    2.0958   -2.0398   -0.1702 H   0  0  0  0  0  0  0  0  0  0  0  0
   -1.3801   -2.1165   -0.2274 H   0  0  0  0  0  0  0  0  0  0  0  0
  1  2  1  0  0  0  0
  2  3  1  0  0  0  0
  3  4  4  0  0  0  0
  4  5  4  0  0  0  0
  5  6  4  0  0  0  0
  6  7  4  0  0  0  0
  3  8  4  0  0  0  0
  7  8  4  0  0  0  0
  8  9  1  0  0  0  0
  1 10  1  0  0  0  0
  1 11  1  0  0  0  0
  1 12  1  0  0  0  0
  2 13  1  0  0  0  0
  2 14  1  0  0  0  0
  4 15  1  0  0  0  0
  5 16  1  0  0  0  0
  6 17  1  0  0  0  0
  7 18  1  0  0  0  0
  9 19  1  0  0  0  0
M  END
