 xtb: 6.7.1 (edcfbbe)
          04032521453D

 16 16  0     0  0            999 V2000
   -2.5341   -1.0334   -0.0007 C   0  0  0  0  0  0  0  0  0  0  0  0
   -1.2298   -0.2961    0.0012 C   0  0  0  0  0  0  0  0  0  0  0  0
   -1.2130    1.0959    0.0005 C   0  0  0  0  0  0  0  0  0  0  0  0
   -0.0135    1.7809   -0.0003 C   0  0  0  0  0  0  0  0  0  0  0  0
    1.1893    1.0954   -0.0004 C   0  0  0  0  0  0  0  0  0  0  0  0
    1.1843   -0.2931   -0.0002 C   0  0  0  0  0  0  0  0  0  0  0  0
   -0.0261   -0.9802    0.0006 C   0  0  0  0  0  0  0  0  0  0  0  0
    2.3324   -1.0275   -0.0000 O   0  0  0  0  0  0  0  0  0  0  0  0
   -2.3739   -2.1066    0.0504 H   0  0  0  0  0  0  0  0  0  0  0  0
   -3.1413   -0.7273    0.8491 H   0  0  0  0  0  0  0  0  0  0  0  0
   -3.0919   -0.8059   -0.9077 H   0  0  0  0  0  0  0  0  0  0  0  0
   -2.1459    1.6392    0.0009 H   0  0  0  0  0  0  0  0  0  0  0  0
   -0.0086    2.8607   -0.0005 H   0  0  0  0  0  0  0  0  0  0  0  0
    2.1242    1.6369   -0.0009 H   0  0  0  0  0  0  0  0  0  0  0  0
   -0.0003   -2.0594    0.0013 H   0  0  0  0  0  0  0  0  0  0  0  0
    3.1064   -0.4449   -0.0000 H   0  0  0  0  0  0  0  0  0  0  0  0
  1  2  1  0  0  0  0
  2  3  4  0  0  0  0
  3  4  4  0  0  0  0
  4  5  4  0  0  0  0
  5  6  4  0  0  0  0
  2  7  4  0  0  0  0
  6  7  4  0  0  0  0
  6  8  1  0  0  0  0
  1  9  1  0  0  0  0
  1 10  1  0  0  0  0
  1 11  1  0  0  0  0
  3 12  1  0  0  0  0
  4 13  1  0  0  0  0
  5 14  1  0  0  0  0
  7 15  1  0  0  0  0
  8 16  1  0  0  0  0
M  END
