 xtb: 6.7.1 (edcfbbe)
          04062518003D

 24 24  0     0  0            999 V2000
   -1.7824   -1.0160   -0.6734 C   0  0  0  0  0  0  0  0  0  0  0  0
   -1.0413   -0.4745    0.5634 C   0  0  0  0  0  0  0  0  0  0  0  0
   -1.6950   -0.5645    1.4403 H   0  0  0  0  0  0  0  0  0  0  0  0
   -0.6963    1.0165    0.4027 C   0  0  0  0  0  0  0  0  0  0  0  0
   -1.5439    1.4919   -0.1035 H   0  0  0  0  0  0  0  0  0  0  0  0
    0.5600    1.2338   -0.4600 C   0  0  0  0  0  0  0  0  0  0  0  0
    0.8826    2.2742   -0.2912 H   0  0  0  0  0  0  0  0  0  0  0  0
    1.7047    0.3242    0.0282 C   0  0  0  0  0  0  0  0  0  0  0  0
    2.5162    0.3463   -0.7134 H   0  0  0  0  0  0  0  0  0  0  0  0
    1.2467   -1.1411    0.1480 C   0  0  0  0  0  0  0  0  0  0  0  0
    1.9931   -1.6965    0.7424 H   0  0  0  0  0  0  0  0  0  0  0  0
    0.0773   -1.2873    0.9090 O   0  0  0  0  0  0  0  0  0  0  0  0
    1.1544   -1.6675   -1.1369 O   0  0  0  0  0  0  0  0  0  0  0  0
    2.1296    0.8321    1.2683 O   0  0  0  0  0  0  0  0  0  0  0  0
    0.2312    1.0244   -1.8052 O   0  0  0  0  0  0  0  0  0  0  0  0
   -0.5699    1.6591    1.6471 O   0  0  0  0  0  0  0  0  0  0  0  0
   -3.0529   -0.4357   -0.8256 O   0  0  0  0  0  0  0  0  0  0  0  0
   -1.8576   -2.1071   -0.5814 H   0  0  0  0  0  0  0  0  0  0  0  0
   -1.2247   -0.7659   -1.5774 H   0  0  0  0  0  0  0  0  0  0  0  0
    0.9503   -2.6136   -1.0976 H   0  0  0  0  0  0  0  0  0  0  0  0
    2.9171    0.3607    1.5768 H   0  0  0  0  0  0  0  0  0  0  0  0
    0.9826    1.2532   -2.3707 H   0  0  0  0  0  0  0  0  0  0  0  0
    0.2771    1.3981    2.0462 H   0  0  0  0  0  0  0  0  0  0  0  0
   -3.6141   -0.6826   -0.0762 H   0  0  0  0  0  0  0  0  0  0  0  0
  1  2  1  0  0  0  0
  2  3  1  0  0  0  0
  2  4  1  0  0  0  0
  4  5  1  0  0  0  0
  4  6  1  0  0  0  0
  6  7  1  0  0  0  0
  6  8  1  0  0  0  0
  8  9  1  0  0  0  0
  8 10  1  0  0  0  0
 10 11  1  0  0  0  0
  2 12  1  0  0  0  0
 10 12  1  0  0  0  0
 10 13  1  0  0  0  0
  8 14  1  0  0  0  0
  6 15  1  0  0  0  0
  4 16  1  0  0  0  0
  1 17  1  0  0  0  0
  1 18  1  0  0  0  0
  1 19  1  0  0  0  0
 13 20  1  0  0  0  0
 14 21  1  0  0  0  0
 15 22  1  0  0  0  0
 16 23  1  0  0  0  0
 17 24  1  0  0  0  0
M  END
