 xtb: 6.7.1 (edcfbbe)
          04062518003D

 24 24  0     0  0            999 V2000
   -1.8388   -0.5790   -0.8885 C   0  0  0  0  0  0  0  0  0  0  0  0
   -1.1945   -0.1421    0.4329 C   0  0  0  0  0  0  0  0  0  0  0  0
   -1.9774   -0.1832    1.2001 H   0  0  0  0  0  0  0  0  0  0  0  0
   -0.6185    1.2804    0.3630 C   0  0  0  0  0  0  0  0  0  0  0  0
   -1.3587    1.9415   -0.1090 H   0  0  0  0  0  0  0  0  0  0  0  0
    0.6583    1.3172   -0.4915 C   0  0  0  0  0  0  0  0  0  0  0  0
    1.1211    2.3064   -0.3408 H   0  0  0  0  0  0  0  0  0  0  0  0
    1.6657    0.2732    0.0287 C   0  0  0  0  0  0  0  0  0  0  0  0
    2.4504    0.1133   -0.7194 H   0  0  0  0  0  0  0  0  0  0  0  0
    1.0184   -1.1065    0.2769 C   0  0  0  0  0  0  0  0  0  0  0  0
    1.6616   -1.6410    0.9958 H   0  0  0  0  0  0  0  0  0  0  0  0
   -0.2234   -1.0573    0.9295 O   0  0  0  0  0  0  0  0  0  0  0  0
    0.9689   -1.7890   -0.9396 O   0  0  0  0  0  0  0  0  0  0  0  0
    2.3150    0.7388    1.1826 O   0  0  0  0  0  0  0  0  0  0  0  0
    0.2951    1.1376   -1.8331 O   0  0  0  0  0  0  0  0  0  0  0  0
   -0.2646    1.7574    1.6406 O   0  0  0  0  0  0  0  0  0  0  0  0
   -2.7121   -1.6549   -0.6147 O   0  0  0  0  0  0  0  0  0  0  0  0
   -1.0632   -0.8633   -1.6037 H   0  0  0  0  0  0  0  0  0  0  0  0
   -2.3953    0.2746   -1.2949 H   0  0  0  0  0  0  0  0  0  0  0  0
    0.6596   -2.6954   -0.7895 H   0  0  0  0  0  0  0  0  0  0  0  0
    1.6404    1.0594    1.8068 H   0  0  0  0  0  0  0  0  0  0  0  0
    1.0785    1.2201   -2.3959 H   0  0  0  0  0  0  0  0  0  0  0  0
   -1.0434    1.7688    2.2156 H   0  0  0  0  0  0  0  0  0  0  0  0
   -3.1012   -1.9636   -1.4446 H   0  0  0  0  0  0  0  0  0  0  0  0
  1  2  1  0  0  0  0
  2  3  1  0  0  0  0
  2  4  1  0  0  0  0
  4  5  1  0  0  0  0
  4  6  1  0  0  0  0
  6  7  1  0  0  0  0
  6  8  1  0  0  0  0
  8  9  1  0  0  0  0
  8 10  1  0  0  0  0
 10 11  1  0  0  0  0
  2 12  1  0  0  0  0
 10 12  1  0  0  0  0
 10 13  1  0  0  0  0
  8 14  1  0  0  0  0
  6 15  1  0  0  0  0
  4 16  1  0  0  0  0
  1 17  1  0  0  0  0
  1 18  1  0  0  0  0
  1 19  1  0  0  0  0
 13 20  1  0  0  0  0
 14 21  1  0  0  0  0
 15 22  1  0  0  0  0
 16 23  1  0  0  0  0
 17 24  1  0  0  0  0
M  END
