 xtb: 6.7.1 (edcfbbe)
          04062518003D

 24 24  0     0  0            999 V2000
   -2.0226   -1.3983   -0.1558 C   0  0  0  0  0  0  0  0  0  0  0  0
   -1.0127   -0.5206    0.5973 C   0  0  0  0  0  0  0  0  0  0  0  0
   -1.4750   -0.1874    1.5347 H   0  0  0  0  0  0  0  0  0  0  0  0
   -0.6700    0.7362   -0.2254 C   0  0  0  0  0  0  0  0  0  0  0  0
   -0.6151    0.4893   -1.2965 H   0  0  0  0  0  0  0  0  0  0  0  0
    0.7027    1.2628    0.2023 C   0  0  0  0  0  0  0  0  0  0  0  0
    0.6618    1.4664    1.2845 H   0  0  0  0  0  0  0  0  0  0  0  0
    1.7765    0.1961   -0.0837 C   0  0  0  0  0  0  0  0  0  0  0  0
    2.0797    0.2873   -1.1321 H   0  0  0  0  0  0  0  0  0  0  0  0
    1.2250   -1.2345    0.1115 C   0  0  0  0  0  0  0  0  0  0  0  0
    1.9924   -1.8319    0.6241 H   0  0  0  0  0  0  0  0  0  0  0  0
    0.1281   -1.2719    0.9933 O   0  0  0  0  0  0  0  0  0  0  0  0
    0.9209   -1.7665   -1.1387 O   0  0  0  0  0  0  0  0  0  0  0  0
    2.9395    0.4174    0.6715 O   0  0  0  0  0  0  0  0  0  0  0  0
    0.9740    2.4463   -0.5030 O   0  0  0  0  0  0  0  0  0  0  0  0
   -1.6284    1.7378   -0.0027 O   0  0  0  0  0  0  0  0  0  0  0  0
   -3.2011   -0.6437   -0.3303 O   0  0  0  0  0  0  0  0  0  0  0  0
   -2.2124   -2.2985    0.4414 H   0  0  0  0  0  0  0  0  0  0  0  0
   -1.5955   -1.6844   -1.1245 H   0  0  0  0  0  0  0  0  0  0  0  0
    0.8443   -2.7318   -1.0859 H   0  0  0  0  0  0  0  0  0  0  0  0
    2.7368    0.3525    1.6169 H   0  0  0  0  0  0  0  0  0  0  0  0
    1.8470    2.7749   -0.2411 H   0  0  0  0  0  0  0  0  0  0  0  0
   -2.5002    1.3711   -0.2264 H   0  0  0  0  0  0  0  0  0  0  0  0
   -3.8609   -1.1804   -0.7916 H   0  0  0  0  0  0  0  0  0  0  0  0
  1  2  1  0  0  0  0
  2  3  1  0  0  0  0
  2  4  1  0  0  0  0
  4  5  1  0  0  0  0
  4  6  1  0  0  0  0
  6  7  1  0  0  0  0
  6  8  1  0  0  0  0
  8  9  1  0  0  0  0
  8 10  1  0  0  0  0
 10 11  1  0  0  0  0
  2 12  1  0  0  0  0
 10 12  1  0  0  0  0
 10 13  1  0  0  0  0
  8 14  1  0  0  0  0
  6 15  1  0  0  0  0
  4 16  1  0  0  0  0
  1 17  1  0  0  0  0
  1 18  1  0  0  0  0
  1 19  1  0  0  0  0
 13 20  1  0  0  0  0
 14 21  1  0  0  0  0
 15 22  1  0  0  0  0
 16 23  1  0  0  0  0
 17 24  1  0  0  0  0
M  END
