 xtb: 6.7.1 (edcfbbe)
          04062518003D

 24 24  0     0  0            999 V2000
   -2.2575   -0.9803   -0.3379 C   0  0  0  0  0  0  0  0  0  0  0  0
   -1.1295   -0.2481    0.4031 C   0  0  0  0  0  0  0  0  0  0  0  0
   -1.5418    0.1648    1.3342 H   0  0  0  0  0  0  0  0  0  0  0  0
   -0.5528    0.8867   -0.4491 C   0  0  0  0  0  0  0  0  0  0  0  0
   -0.3806    0.5379   -1.4729 H   0  0  0  0  0  0  0  0  0  0  0  0
    0.7910    1.3314    0.1506 C   0  0  0  0  0  0  0  0  0  0  0  0
    0.6343    1.5967    1.2120 H   0  0  0  0  0  0  0  0  0  0  0  0
    1.7980    0.1719    0.0747 C   0  0  0  0  0  0  0  0  0  0  0  0
    2.3478    0.2598   -0.8673 H   0  0  0  0  0  0  0  0  0  0  0  0
    1.0646   -1.1914    0.0669 C   0  0  0  0  0  0  0  0  0  0  0  0
    1.6999   -1.9152    0.5957 H   0  0  0  0  0  0  0  0  0  0  0  0
   -0.1205   -1.1694    0.8272 O   0  0  0  0  0  0  0  0  0  0  0  0
    0.8429   -1.5726   -1.2537 O   0  0  0  0  0  0  0  0  0  0  0  0
    2.7668    0.2205    1.0856 O   0  0  0  0  0  0  0  0  0  0  0  0
    1.3064    2.4455   -0.5316 O   0  0  0  0  0  0  0  0  0  0  0  0
   -1.4365    1.9700   -0.5642 O   0  0  0  0  0  0  0  0  0  0  0  0
   -2.9863   -1.8319    0.5097 O   0  0  0  0  0  0  0  0  0  0  0  0
   -1.8321   -1.5352   -1.1830 H   0  0  0  0  0  0  0  0  0  0  0  0
   -2.9663   -0.2431   -0.7203 H   0  0  0  0  0  0  0  0  0  0  0  0
    0.7037   -2.5298   -1.3169 H   0  0  0  0  0  0  0  0  0  0  0  0
    2.3405    0.2231    1.9558 H   0  0  0  0  0  0  0  0  0  0  0  0
    0.5589    2.9699   -0.8656 H   0  0  0  0  0  0  0  0  0  0  0  0
   -1.7052    2.2754    0.3161 H   0  0  0  0  0  0  0  0  0  0  0  0
   -2.3685   -2.4357    0.9474 H   0  0  0  0  0  0  0  0  0  0  0  0
  1  2  1  0  0  0  0
  2  3  1  0  0  0  0
  2  4  1  0  0  0  0
  4  5  1  0  0  0  0
  4  6  1  0  0  0  0
  6  7  1  0  0  0  0
  6  8  1  0  0  0  0
  8  9  1  0  0  0  0
  8 10  1  0  0  0  0
 10 11  1  0  0  0  0
  2 12  1  0  0  0  0
 10 12  1  0  0  0  0
 10 13  1  0  0  0  0
  8 14  1  0  0  0  0
  6 15  1  0  0  0  0
  4 16  1  0  0  0  0
  1 17  1  0  0  0  0
  1 18  1  0  0  0  0
  1 19  1  0  0  0  0
 13 20  1  0  0  0  0
 14 21  1  0  0  0  0
 15 22  1  0  0  0  0
 16 23  1  0  0  0  0
 17 24  1  0  0  0  0
M  END
