 xtb: 6.7.1 (edcfbbe)
          04062505073D

 29 29  0     0  0            999 V2000
   -3.5128   -0.5274    0.1097 C   0  0  0  0  0  0  0  0  0  0  0  0
   -2.1660   -0.1221   -0.4850 C   0  0  0  0  0  0  0  0  0  0  0  0
   -2.3309    0.2179   -1.5120 H   0  0  0  0  0  0  0  0  0  0  0  0
   -1.1794   -1.3006   -0.5028 C   0  0  0  0  0  0  0  0  0  0  0  0
   -0.2473   -1.2457    0.7031 C   0  0  0  0  0  0  0  0  0  0  0  0
    0.6942   -0.0387    0.5868 C   0  0  0  0  0  0  0  0  0  0  0  0
    1.0465    0.2197    1.5934 H   0  0  0  0  0  0  0  0  0  0  0  0
   -0.0967    1.1617    0.1048 C   0  0  0  0  0  0  0  0  0  0  0  0
    0.4079    2.1331   -0.4267 O   0  0  0  0  0  0  0  0  0  0  0  0
   -1.5800    1.0581    0.3181 C   0  0  0  0  0  0  0  0  0  0  0  0
    1.9551   -0.2411   -0.2927 C   0  0  0  0  0  0  0  0  0  0  0  0
    3.0317    0.7671    0.1147 C   0  0  0  0  0  0  0  0  0  0  0  0
    2.5401   -1.6501   -0.2102 C   0  0  0  0  0  0  0  0  0  0  0  0
   -3.9870   -1.2835   -0.5109 H   0  0  0  0  0  0  0  0  0  0  0  0
   -3.3814   -0.9340    1.1095 H   0  0  0  0  0  0  0  0  0  0  0  0
   -4.1765    0.3316    0.1702 H   0  0  0  0  0  0  0  0  0  0  0  0
   -1.7329   -2.2399   -0.5078 H   0  0  0  0  0  0  0  0  0  0  0  0
   -0.5762   -1.2656   -1.4121 H   0  0  0  0  0  0  0  0  0  0  0  0
   -0.8417   -1.1606    1.6136 H   0  0  0  0  0  0  0  0  0  0  0  0
    0.3263   -2.1653    0.7836 H   0  0  0  0  0  0  0  0  0  0  0  0
   -1.7624    0.8942    1.3808 H   0  0  0  0  0  0  0  0  0  0  0  0
   -2.0548    1.9940    0.0216 H   0  0  0  0  0  0  0  0  0  0  0  0
    1.6788   -0.0385   -1.3339 H   0  0  0  0  0  0  0  0  0  0  0  0
    3.8862    0.6969   -0.5543 H   0  0  0  0  0  0  0  0  0  0  0  0
    3.3717    0.5676    1.1291 H   0  0  0  0  0  0  0  0  0  0  0  0
    2.6453    1.7813    0.0664 H   0  0  0  0  0  0  0  0  0  0  0  0
    2.7188   -1.9314    0.8250 H   0  0  0  0  0  0  0  0  0  0  0  0
    3.4920   -1.6706   -0.7357 H   0  0  0  0  0  0  0  0  0  0  0  0
    1.8901   -2.3853   -0.6757 H   0  0  0  0  0  0  0  0  0  0  0  0
  1  2  1  0  0  0  0
  2  3  1  0  0  0  0
  2  4  1  0  0  0  0
  4  5  1  0  0  0  0
  5  6  1  0  0  0  0
  6  7  1  0  0  0  0
  6  8  1  0  0  0  0
  8  9  2  0  0  0  0
  2 10  1  0  0  0  0
  8 10  1  0  0  0  0
  6 11  1  0  0  0  0
 11 12  1  0  0  0  0
 11 13  1  0  0  0  0
  1 14  1  0  0  0  0
  1 15  1  0  0  0  0
  1 16  1  0  0  0  0
  4 17  1  0  0  0  0
  4 18  1  0  0  0  0
  5 19  1  0  0  0  0
  5 20  1  0  0  0  0
 10 21  1  0  0  0  0
 10 22  1  0  0  0  0
 11 23  1  0  0  0  0
 12 24  1  0  0  0  0
 12 25  1  0  0  0  0
 12 26  1  0  0  0  0
 13 27  1  0  0  0  0
 13 28  1  0  0  0  0
 13 29  1  0  0  0  0
M  END
