 xtb: 6.7.1 (edcfbbe)
          04062518003D

 24 24  0     0  0            999 V2000
   -2.1017   -1.2221   -0.1645 C   0  0  0  0  0  0  0  0  0  0  0  0
   -1.2350   -0.3681    0.7845 C   0  0  0  0  0  0  0  0  0  0  0  0
   -1.8099   -0.2247    1.7055 H   0  0  0  0  0  0  0  0  0  0  0  0
   -0.9137    1.0063    0.1619 C   0  0  0  0  0  0  0  0  0  0  0  0
   -1.1965    0.9969   -0.8977 H   0  0  0  0  0  0  0  0  0  0  0  0
    0.5914    1.2875    0.2515 C   0  0  0  0  0  0  0  0  0  0  0  0
    0.8923    1.3692    1.3100 H   0  0  0  0  0  0  0  0  0  0  0  0
    1.3523    0.1198   -0.3823 C   0  0  0  0  0  0  0  0  0  0  0  0
    1.0301    0.0185   -1.4293 H   0  0  0  0  0  0  0  0  0  0  0  0
    1.0182   -1.1782    0.3711 C   0  0  0  0  0  0  0  0  0  0  0  0
    1.8690   -1.4099    1.0256 H   0  0  0  0  0  0  0  0  0  0  0  0
   -0.0670   -1.0455    1.2521 O   0  0  0  0  0  0  0  0  0  0  0  0
    0.8151   -2.1964   -0.5627 O   0  0  0  0  0  0  0  0  0  0  0  0
    2.7416    0.3027   -0.3156 O   0  0  0  0  0  0  0  0  0  0  0  0
    0.9392    2.4632   -0.4373 O   0  0  0  0  0  0  0  0  0  0  0  0
   -1.6559    2.0553    0.7313 O   0  0  0  0  0  0  0  0  0  0  0  0
   -1.6350   -1.2723   -1.4883 O   0  0  0  0  0  0  0  0  0  0  0  0
   -3.0915   -0.7637   -0.2165 H   0  0  0  0  0  0  0  0  0  0  0  0
   -2.1942   -2.2295    0.2589 H   0  0  0  0  0  0  0  0  0  0  0  0
    0.8673   -3.0647   -0.1337 H   0  0  0  0  0  0  0  0  0  0  0  0
    2.9492    1.1730   -0.6910 H   0  0  0  0  0  0  0  0  0  0  0  0
    0.2483    3.1265   -0.2851 H   0  0  0  0  0  0  0  0  0  0  0  0
   -1.5052    2.0873    1.6881 H   0  0  0  0  0  0  0  0  0  0  0  0
   -0.7704   -1.7255   -1.4925 H   0  0  0  0  0  0  0  0  0  0  0  0
  1  2  1  0  0  0  0
  2  3  1  0  0  0  0
  2  4  1  0  0  0  0
  4  5  1  0  0  0  0
  4  6  1  0  0  0  0
  6  7  1  0  0  0  0
  6  8  1  0  0  0  0
  8  9  1  0  0  0  0
  8 10  1  0  0  0  0
 10 11  1  0  0  0  0
  2 12  1  0  0  0  0
 10 12  1  0  0  0  0
 10 13  1  0  0  0  0
  8 14  1  0  0  0  0
  6 15  1  0  0  0  0
  4 16  1  0  0  0  0
  1 17  1  0  0  0  0
  1 18  1  0  0  0  0
  1 19  1  0  0  0  0
 13 20  1  0  0  0  0
 14 21  1  0  0  0  0
 15 22  1  0  0  0  0
 16 23  1  0  0  0  0
 17 24  1  0  0  0  0
M  END
