 xtb: 6.7.1 (edcfbbe)
          04042519183D

 15 15  0     0  0            999 V2000
    1.8247   -1.1319   -0.0000 C   0  0  0  0  0  0  0  0  0  0  0  0
    2.3136    0.1697    0.0000 C   0  0  0  0  0  0  0  0  0  0  0  0
    1.4505    1.2481    0.0000 C   0  0  0  0  0  0  0  0  0  0  0  0
    0.0715    1.0517   -0.0000 C   0  0  0  0  0  0  0  0  0  0  0  0
   -0.4310   -0.2654   -0.0000 C   0  0  0  0  0  0  0  0  0  0  0  0
    0.4644   -1.3413    0.0000 C   0  0  0  0  0  0  0  0  0  0  0  0
   -1.8618   -0.5055   -0.0000 C   0  0  0  0  0  0  0  0  0  0  0  0
   -2.3937   -1.6017   -0.0000 O   0  0  0  0  0  0  0  0  0  0  0  0
   -0.7957    2.0803    0.0000 O   0  0  0  0  0  0  0  0  0  0  0  0
    2.5049   -1.9680    0.0001 H   0  0  0  0  0  0  0  0  0  0  0  0
    3.3784    0.3432    0.0002 H   0  0  0  0  0  0  0  0  0  0  0  0
    1.8451    2.2533    0.0000 H   0  0  0  0  0  0  0  0  0  0  0  0
    0.0441   -2.3358   -0.0000 H   0  0  0  0  0  0  0  0  0  0  0  0
   -2.4799    0.4082   -0.0001 H   0  0  0  0  0  0  0  0  0  0  0  0
   -0.3276    2.9320    0.0001 H   0  0  0  0  0  0  0  0  0  0  0  0
  1  2  4  0  0  0  0
  2  3  4  0  0  0  0
  3  4  4  0  0  0  0
  4  5  4  0  0  0  0
  1  6  4  0  0  0  0
  5  6  4  0  0  0  0
  5  7  1  0  0  0  0
  7  8  2  0  0  0  0
  4  9  1  0  0  0  0
  1 10  1  0  0  0  0
  2 11  1  0  0  0  0
  3 12  1  0  0  0  0
  6 13  1  0  0  0  0
  7 14  1  0  0  0  0
  9 15  1  0  0  0  0
M  END
