 xtb: 6.7.1 (edcfbbe)
          04062518003D

 24 24  0     0  0            999 V2000
   -2.3850   -1.1818   -0.2890 C   0  0  0  0  0  0  0  0  0  0  0  0
   -1.0847   -0.6341    0.3294 C   0  0  0  0  0  0  0  0  0  0  0  0
   -1.1503   -0.6377    1.4297 H   0  0  0  0  0  0  0  0  0  0  0  0
   -0.8108    0.8179   -0.1000 C   0  0  0  0  0  0  0  0  0  0  0  0
   -0.9798    0.9184   -1.1815 H   0  0  0  0  0  0  0  0  0  0  0  0
    0.6409    1.2225    0.2035 C   0  0  0  0  0  0  0  0  0  0  0  0
    0.7451    1.3250    1.2980 H   0  0  0  0  0  0  0  0  0  0  0  0
    1.6277    0.1554   -0.2899 C   0  0  0  0  0  0  0  0  0  0  0  0
    1.5545    0.0793   -1.3807 H   0  0  0  0  0  0  0  0  0  0  0  0
    1.2272   -1.1930    0.3383 C   0  0  0  0  0  0  0  0  0  0  0  0
    1.2512   -1.1052    1.4392 H   0  0  0  0  0  0  0  0  0  0  0  0
   -0.0743   -1.5271   -0.0944 O   0  0  0  0  0  0  0  0  0  0  0  0
    2.0789   -2.2265    0.0205 O   0  0  0  0  0  0  0  0  0  0  0  0
    2.9548    0.5247   -0.0169 O   0  0  0  0  0  0  0  0  0  0  0  0
    0.8761    2.4671   -0.4109 O   0  0  0  0  0  0  0  0  0  0  0  0
   -1.6992    1.6339    0.6214 O   0  0  0  0  0  0  0  0  0  0  0  0
   -3.4496   -0.2747   -0.3246 O   0  0  0  0  0  0  0  0  0  0  0  0
   -2.6622   -2.0971    0.2505 H   0  0  0  0  0  0  0  0  0  0  0  0
   -2.1742   -1.4468   -1.3280 H   0  0  0  0  0  0  0  0  0  0  0  0
    1.9780   -2.4626   -0.9149 H   0  0  0  0  0  0  0  0  0  0  0  0
    3.1802    0.3213    0.9023 H   0  0  0  0  0  0  0  0  0  0  0  0
    1.8334    2.6187   -0.4447 H   0  0  0  0  0  0  0  0  0  0  0  0
   -1.5699    2.5523    0.3428 H   0  0  0  0  0  0  0  0  0  0  0  0
   -3.5560    0.1390    0.5444 H   0  0  0  0  0  0  0  0  0  0  0  0
  1  2  1  0  0  0  0
  2  3  1  0  0  0  0
  2  4  1  0  0  0  0
  4  5  1  0  0  0  0
  4  6  1  0  0  0  0
  6  7  1  0  0  0  0
  6  8  1  0  0  0  0
  8  9  1  0  0  0  0
  8 10  1  0  0  0  0
 10 11  1  0  0  0  0
  2 12  1  0  0  0  0
 10 12  1  0  0  0  0
 10 13  1  0  0  0  0
  8 14  1  0  0  0  0
  6 15  1  0  0  0  0
  4 16  1  0  0  0  0
  1 17  1  0  0  0  0
  1 18  1  0  0  0  0
  1 19  1  0  0  0  0
 13 20  1  0  0  0  0
 14 21  1  0  0  0  0
 15 22  1  0  0  0  0
 16 23  1  0  0  0  0
 17 24  1  0  0  0  0
M  END
