 xtb: 6.7.1 (edcfbbe)
          04062518003D

 24 24  0     0  0            999 V2000
   -2.2958   -1.0596   -0.0165 C   0  0  0  0  0  0  0  0  0  0  0  0
   -0.9029   -0.5092    0.3121 C   0  0  0  0  0  0  0  0  0  0  0  0
   -0.9009   -0.2253    1.3738 H   0  0  0  0  0  0  0  0  0  0  0  0
   -0.5301    0.7181   -0.5251 C   0  0  0  0  0  0  0  0  0  0  0  0
   -0.4261    0.3929   -1.5743 H   0  0  0  0  0  0  0  0  0  0  0  0
    0.8283    1.2765   -0.0508 C   0  0  0  0  0  0  0  0  0  0  0  0
    0.6439    2.0023    0.7489 H   0  0  0  0  0  0  0  0  0  0  0  0
    1.7150    0.1610    0.5399 C   0  0  0  0  0  0  0  0  0  0  0  0
    2.7603    0.4024    0.2985 H   0  0  0  0  0  0  0  0  0  0  0  0
    1.3644   -1.1723   -0.1395 C   0  0  0  0  0  0  0  0  0  0  0  0
    1.9728   -1.9901    0.2788 H   0  0  0  0  0  0  0  0  0  0  0  0
    0.0352   -1.5612    0.0926 O   0  0  0  0  0  0  0  0  0  0  0  0
    1.6335   -1.0148   -1.5024 O   0  0  0  0  0  0  0  0  0  0  0  0
    1.5132    0.1159    1.9265 O   0  0  0  0  0  0  0  0  0  0  0  0
    1.4818    1.9754   -1.0783 O   0  0  0  0  0  0  0  0  0  0  0  0
   -1.5548    1.6714   -0.4198 O   0  0  0  0  0  0  0  0  0  0  0  0
   -3.1919   -0.6425    0.9841 O   0  0  0  0  0  0  0  0  0  0  0  0
   -2.2156   -2.1549   -0.0353 H   0  0  0  0  0  0  0  0  0  0  0  0
   -2.6122   -0.7000   -1.0015 H   0  0  0  0  0  0  0  0  0  0  0  0
    1.4665   -1.8476   -1.9707 H   0  0  0  0  0  0  0  0  0  0  0  0
    2.1361   -0.5014    2.3377 H   0  0  0  0  0  0  0  0  0  0  0  0
    1.7285    1.3465   -1.7749 H   0  0  0  0  0  0  0  0  0  0  0  0
   -1.2759    2.4800   -0.8748 H   0  0  0  0  0  0  0  0  0  0  0  0
   -4.0945   -0.8673    0.7180 H   0  0  0  0  0  0  0  0  0  0  0  0
  1  2  1  0  0  0  0
  2  3  1  0  0  0  0
  2  4  1  0  0  0  0
  4  5  1  0  0  0  0
  4  6  1  0  0  0  0
  6  7  1  0  0  0  0
  6  8  1  0  0  0  0
  8  9  1  0  0  0  0
  8 10  1  0  0  0  0
 10 11  1  0  0  0  0
  2 12  1  0  0  0  0
 10 12  1  0  0  0  0
 10 13  1  0  0  0  0
  8 14  1  0  0  0  0
  6 15  1  0  0  0  0
  4 16  1  0  0  0  0
  1 17  1  0  0  0  0
  1 18  1  0  0  0  0
  1 19  1  0  0  0  0
 13 20  1  0  0  0  0
 14 21  1  0  0  0  0
 15 22  1  0  0  0  0
 16 23  1  0  0  0  0
 17 24  1  0  0  0  0
M  END
