 xtb: 6.7.1 (edcfbbe)
          04052508553D

 21 21  0     0  0            999 V2000
   -3.1590    0.0025    0.8413 C   0  0  0  0  0  0  0  0  0  0  0  0
   -2.4548   -0.0016   -0.5175 C   0  0  0  0  0  0  0  0  0  0  0  0
   -0.9630   -0.0012   -0.3388 C   0  0  0  0  0  0  0  0  0  0  0  0
   -0.2586   -1.1930   -0.2292 C   0  0  0  0  0  0  0  0  0  0  0  0
    1.1086   -1.1925   -0.0224 C   0  0  0  0  0  0  0  0  0  0  0  0
    1.8132    0.0001    0.0837 C   0  0  0  0  0  0  0  0  0  0  0  0
    1.1077    1.1921   -0.0242 C   0  0  0  0  0  0  0  0  0  0  0  0
   -0.2594    1.1913   -0.2309 C   0  0  0  0  0  0  0  0  0  0  0  0
    3.2986    0.0014    0.2834 C   0  0  0  0  0  0  0  0  0  0  0  0
   -2.8752    0.8847    1.4107 H   0  0  0  0  0  0  0  0  0  0  0  0
   -2.8783   -0.8784    1.4142 H   0  0  0  0  0  0  0  0  0  0  0  0
   -4.2382    0.0041    0.7102 H   0  0  0  0  0  0  0  0  0  0  0  0
   -2.7589    0.8817   -1.0825 H   0  0  0  0  0  0  0  0  0  0  0  0
   -2.7591   -0.8880   -1.0775 H   0  0  0  0  0  0  0  0  0  0  0  0
   -0.7872   -2.1326   -0.3084 H   0  0  0  0  0  0  0  0  0  0  0  0
    1.6373   -2.1318    0.0582 H   0  0  0  0  0  0  0  0  0  0  0  0
    1.6359    2.1318    0.0552 H   0  0  0  0  0  0  0  0  0  0  0  0
   -0.7887    2.1305   -0.3116 H   0  0  0  0  0  0  0  0  0  0  0  0
    3.6180   -0.8907    0.8163 H   0  0  0  0  0  0  0  0  0  0  0  0
    3.8026    0.0166   -0.6831 H   0  0  0  0  0  0  0  0  0  0  0  0
    3.6128    0.8804    0.8409 H   0  0  0  0  0  0  0  0  0  0  0  0
  1  2  1  0  0  0  0
  2  3  1  0  0  0  0
  3  4  4  0  0  0  0
  4  5  4  0  0  0  0
  5  6  4  0  0  0  0
  6  7  4  0  0  0  0
  3  8  4  0  0  0  0
  7  8  4  0  0  0  0
  6  9  1  0  0  0  0
  1 10  1  0  0  0  0
  1 11  1  0  0  0  0
  1 12  1  0  0  0  0
  2 13  1  0  0  0  0
  2 14  1  0  0  0  0
  4 15  1  0  0  0  0
  5 16  1  0  0  0  0
  7 17  1  0  0  0  0
  8 18  1  0  0  0  0
  9 19  1  0  0  0  0
  9 20  1  0  0  0  0
  9 21  1  0  0  0  0
M  END
