 xtb: 6.7.1 (edcfbbe)
          04062518003D

 24 24  0     0  0            999 V2000
   -2.2222   -1.2159    0.1190 C   0  0  0  0  0  0  0  0  0  0  0  0
   -0.8695   -0.5710    0.4737 C   0  0  0  0  0  0  0  0  0  0  0  0
   -0.8868   -0.2575    1.5299 H   0  0  0  0  0  0  0  0  0  0  0  0
   -0.5726    0.6535   -0.4043 C   0  0  0  0  0  0  0  0  0  0  0  0
   -0.5147    0.3407   -1.4527 H   0  0  0  0  0  0  0  0  0  0  0  0
    0.7757    1.2705    0.0011 C   0  0  0  0  0  0  0  0  0  0  0  0
    0.6224    1.8730    0.9135 H   0  0  0  0  0  0  0  0  0  0  0  0
    1.8022    0.1887    0.3754 C   0  0  0  0  0  0  0  0  0  0  0  0
    2.7505    0.4617   -0.1062 H   0  0  0  0  0  0  0  0  0  0  0  0
    1.3766   -1.1872   -0.1632 C   0  0  0  0  0  0  0  0  0  0  0  0
    2.0631   -1.9580    0.2220 H   0  0  0  0  0  0  0  0  0  0  0  0
    0.1186   -1.5868    0.3198 O   0  0  0  0  0  0  0  0  0  0  0  0
    1.4206   -1.1427   -1.5541 O   0  0  0  0  0  0  0  0  0  0  0  0
    1.9094    0.1726    1.7754 O   0  0  0  0  0  0  0  0  0  0  0  0
    1.3194    2.0683   -1.0183 O   0  0  0  0  0  0  0  0  0  0  0  0
   -1.6059    1.6077   -0.3440 O   0  0  0  0  0  0  0  0  0  0  0  0
   -3.3228   -0.4409    0.5102 O   0  0  0  0  0  0  0  0  0  0  0  0
   -2.2970   -2.1636    0.6564 H   0  0  0  0  0  0  0  0  0  0  0  0
   -2.2460   -1.4203   -0.9587 H   0  0  0  0  0  0  0  0  0  0  0  0
    1.2654   -2.0274   -1.9202 H   0  0  0  0  0  0  0  0  0  0  0  0
    2.6382   -0.4018    2.0508 H   0  0  0  0  0  0  0  0  0  0  0  0
    0.6346    2.6699   -1.3483 H   0  0  0  0  0  0  0  0  0  0  0  0
   -1.6431    1.9857    0.5483 H   0  0  0  0  0  0  0  0  0  0  0  0
   -3.2944    0.3959    0.0156 H   0  0  0  0  0  0  0  0  0  0  0  0
  1  2  1  0  0  0  0
  2  3  1  0  0  0  0
  2  4  1  0  0  0  0
  4  5  1  0  0  0  0
  4  6  1  0  0  0  0
  6  7  1  0  0  0  0
  6  8  1  0  0  0  0
  8  9  1  0  0  0  0
  8 10  1  0  0  0  0
 10 11  1  0  0  0  0
  2 12  1  0  0  0  0
 10 12  1  0  0  0  0
 10 13  1  0  0  0  0
  8 14  1  0  0  0  0
  6 15  1  0  0  0  0
  4 16  1  0  0  0  0
  1 17  1  0  0  0  0
  1 18  1  0  0  0  0
  1 19  1  0  0  0  0
 13 20  1  0  0  0  0
 14 21  1  0  0  0  0
 15 22  1  0  0  0  0
 16 23  1  0  0  0  0
 17 24  1  0  0  0  0
M  END
