 xtb: 6.7.1 (edcfbbe)
          04062518003D

 24 24  0     0  0            999 V2000
   -2.4857   -0.7879   -0.0011 C   0  0  0  0  0  0  0  0  0  0  0  0
   -1.1035   -0.5139    0.5907 C   0  0  0  0  0  0  0  0  0  0  0  0
   -1.0902   -0.8378    1.6446 H   0  0  0  0  0  0  0  0  0  0  0  0
   -0.7395    0.9962    0.5625 C   0  0  0  0  0  0  0  0  0  0  0  0
   -1.6136    1.5651    0.2276 H   0  0  0  0  0  0  0  0  0  0  0  0
    0.4090    1.2432   -0.4265 C   0  0  0  0  0  0  0  0  0  0  0  0
    0.7452    2.2822   -0.3174 H   0  0  0  0  0  0  0  0  0  0  0  0
    1.6142    0.3435   -0.0637 C   0  0  0  0  0  0  0  0  0  0  0  0
    2.2768    0.3068   -0.9367 H   0  0  0  0  0  0  0  0  0  0  0  0
    1.1471   -1.1007    0.2339 C   0  0  0  0  0  0  0  0  0  0  0  0
    1.2274   -1.2744    1.3311 H   0  0  0  0  0  0  0  0  0  0  0  0
   -0.1887   -1.3056   -0.1497 O   0  0  0  0  0  0  0  0  0  0  0  0
    1.9437   -1.9858   -0.4674 O   0  0  0  0  0  0  0  0  0  0  0  0
    2.2527    0.9146    1.0541 O   0  0  0  0  0  0  0  0  0  0  0  0
    0.0212    1.0907   -1.7625 O   0  0  0  0  0  0  0  0  0  0  0  0
   -0.4310    1.4712    1.8505 O   0  0  0  0  0  0  0  0  0  0  0  0
   -2.5288   -0.2473   -1.3012 O   0  0  0  0  0  0  0  0  0  0  0  0
   -3.2388   -0.3237    0.6461 H   0  0  0  0  0  0  0  0  0  0  0  0
   -2.6363   -1.8730   -0.0271 H   0  0  0  0  0  0  0  0  0  0  0  0
    1.4944   -2.8431   -0.5342 H   0  0  0  0  0  0  0  0  0  0  0  0
    3.1471    0.5577    1.1481 H   0  0  0  0  0  0  0  0  0  0  0  0
   -0.6205    0.3630   -1.8363 H   0  0  0  0  0  0  0  0  0  0  0  0
    0.5221    1.3677    2.0115 H   0  0  0  0  0  0  0  0  0  0  0  0
   -3.3808   -0.4516   -1.7111 H   0  0  0  0  0  0  0  0  0  0  0  0
  1  2  1  0  0  0  0
  2  3  1  0  0  0  0
  2  4  1  0  0  0  0
  4  5  1  0  0  0  0
  4  6  1  0  0  0  0
  6  7  1  0  0  0  0
  6  8  1  0  0  0  0
  8  9  1  0  0  0  0
  8 10  1  0  0  0  0
 10 11  1  0  0  0  0
  2 12  1  0  0  0  0
 10 12  1  0  0  0  0
 10 13  1  0  0  0  0
  8 14  1  0  0  0  0
  6 15  1  0  0  0  0
  4 16  1  0  0  0  0
  1 17  1  0  0  0  0
  1 18  1  0  0  0  0
  1 19  1  0  0  0  0
 13 20  1  0  0  0  0
 14 21  1  0  0  0  0
 15 22  1  0  0  0  0
 16 23  1  0  0  0  0
 17 24  1  0  0  0  0
M  END
