 xtb: 6.7.1 (edcfbbe)
          04062518003D

 24 24  0     0  0            999 V2000
   -2.3936   -1.1477   -0.3490 C   0  0  0  0  0  0  0  0  0  0  0  0
   -1.0676   -0.6305    0.2338 C   0  0  0  0  0  0  0  0  0  0  0  0
   -1.1137   -0.6318    1.3361 H   0  0  0  0  0  0  0  0  0  0  0  0
   -0.7759    0.8066   -0.2319 C   0  0  0  0  0  0  0  0  0  0  0  0
   -0.8101    0.8361   -1.3327 H   0  0  0  0  0  0  0  0  0  0  0  0
    0.6307    1.2387    0.2128 C   0  0  0  0  0  0  0  0  0  0  0  0
    0.6339    1.3099    1.3143 H   0  0  0  0  0  0  0  0  0  0  0  0
    1.6661    0.1938   -0.2265 C   0  0  0  0  0  0  0  0  0  0  0  0
    1.7004    0.1745   -1.3210 H   0  0  0  0  0  0  0  0  0  0  0  0
    1.2271   -1.1962    0.2941 C   0  0  0  0  0  0  0  0  0  0  0  0
    1.2056   -1.1812    1.3977 H   0  0  0  0  0  0  0  0  0  0  0  0
   -0.0587   -1.5171   -0.2029 O   0  0  0  0  0  0  0  0  0  0  0  0
    2.0939   -2.2060   -0.0502 O   0  0  0  0  0  0  0  0  0  0  0  0
    2.9699    0.5036    0.1757 O   0  0  0  0  0  0  0  0  0  0  0  0
    0.9760    2.4805   -0.3449 O   0  0  0  0  0  0  0  0  0  0  0  0
   -1.6834    1.7302    0.3162 O   0  0  0  0  0  0  0  0  0  0  0  0
   -3.5002   -0.4041    0.0968 O   0  0  0  0  0  0  0  0  0  0  0  0
   -2.4869   -2.2103   -0.1081 H   0  0  0  0  0  0  0  0  0  0  0  0
   -2.3629   -1.0441   -1.4361 H   0  0  0  0  0  0  0  0  0  0  0  0
    2.1286   -2.3026   -1.0147 H   0  0  0  0  0  0  0  0  0  0  0  0
    3.0059    0.6333    1.1344 H   0  0  0  0  0  0  0  0  0  0  0  0
    0.2617    3.1074   -0.1525 H   0  0  0  0  0  0  0  0  0  0  0  0
   -2.5881    1.4222    0.1281 H   0  0  0  0  0  0  0  0  0  0  0  0
   -3.7370   -0.6722    0.9961 H   0  0  0  0  0  0  0  0  0  0  0  0
  1  2  1  0  0  0  0
  2  3  1  0  0  0  0
  2  4  1  0  0  0  0
  4  5  1  0  0  0  0
  4  6  1  0  0  0  0
  6  7  1  0  0  0  0
  6  8  1  0  0  0  0
  8  9  1  0  0  0  0
  8 10  1  0  0  0  0
 10 11  1  0  0  0  0
  2 12  1  0  0  0  0
 10 12  1  0  0  0  0
 10 13  1  0  0  0  0
  8 14  1  0  0  0  0
  6 15  1  0  0  0  0
  4 16  1  0  0  0  0
  1 17  1  0  0  0  0
  1 18  1  0  0  0  0
  1 19  1  0  0  0  0
 13 20  1  0  0  0  0
 14 21  1  0  0  0  0
 15 22  1  0  0  0  0
 16 23  1  0  0  0  0
 17 24  1  0  0  0  0
M  END
