 xtb: 6.7.1 (edcfbbe)
          04042521533D

 17 16  0     0  0            999 V2000
   -2.0664    0.4289    0.3268 C   0  0  0  0  0  0  0  0  0  0  0  0
   -0.8221    0.2966   -0.5447 C   0  0  0  0  0  0  0  0  0  0  0  0
    0.4201   -0.1399    0.2595 C   0  0  0  0  0  0  0  0  0  0  0  0
    0.9415   -1.4933   -0.2210 C   0  0  0  0  0  0  0  0  0  0  0  0
    1.5282    0.9088    0.1770 C   0  0  0  0  0  0  0  0  0  0  0  0
   -2.3029   -0.5209    0.8014 H   0  0  0  0  0  0  0  0  0  0  0  0
   -2.9213    0.7348   -0.2720 H   0  0  0  0  0  0  0  0  0  0  0  0
   -1.9096    1.1726    1.1050 H   0  0  0  0  0  0  0  0  0  0  0  0
   -1.0205   -0.4291   -1.3354 H   0  0  0  0  0  0  0  0  0  0  0  0
   -0.6275    1.2553   -1.0287 H   0  0  0  0  0  0  0  0  0  0  0  0
    0.1329   -0.2439    1.3116 H   0  0  0  0  0  0  0  0  0  0  0  0
    0.1652   -2.2512   -0.1446 H   0  0  0  0  0  0  0  0  0  0  0  0
    1.7906   -1.8112    0.3803 H   0  0  0  0  0  0  0  0  0  0  0  0
    1.2619   -1.4289   -1.2589 H   0  0  0  0  0  0  0  0  0  0  0  0
    1.1730    1.8696    0.5426 H   0  0  0  0  0  0  0  0  0  0  0  0
    1.8588    1.0306   -0.8525 H   0  0  0  0  0  0  0  0  0  0  0  0
    2.3838    0.6088    0.7783 H   0  0  0  0  0  0  0  0  0  0  0  0
  1  2  1  0  0  0  0
  2  3  1  0  0  0  0
  3  4  1  0  0  0  0
  3  5  1  0  0  0  0
  1  6  1  0  0  0  0
  1  7  1  0  0  0  0
  1  8  1  0  0  0  0
  2  9  1  0  0  0  0
  2 10  1  0  0  0  0
  3 11  1  0  0  0  0
  4 12  1  0  0  0  0
  4 13  1  0  0  0  0
  4 14  1  0  0  0  0
  5 15  1  0  0  0  0
  5 16  1  0  0  0  0
  5 17  1  0  0  0  0
M  END
