 xtb: 6.7.1 (edcfbbe)
          04052516073D

 27 27  0     0  0            999 V2000
   -2.9839    0.7098    0.6238 C   0  0  0  0  0  0  0  0  0  0  0  0
   -1.5059    0.3255    0.6188 C   0  0  0  0  0  0  0  0  0  0  0  0
   -1.2053    0.1176    1.6528 H   0  0  0  0  0  0  0  0  0  0  0  0
   -0.6133    1.4520    0.0577 C   0  0  0  0  0  0  0  0  0  0  0  0
    0.2179    0.9842   -1.1292 C   0  0  0  0  0  0  0  0  0  0  0  0
    1.0729   -0.2375   -0.7595 C   0  0  0  0  0  0  0  0  0  0  0  0
    1.6085   -0.5488   -1.6620 H   0  0  0  0  0  0  0  0  0  0  0  0
    0.1400   -1.3911   -0.3474 C   0  0  0  0  0  0  0  0  0  0  0  0
   -1.2895   -0.9833   -0.1069 C   0  0  0  0  0  0  0  0  0  0  0  0
   -2.2121   -1.7054   -0.4372 O   0  0  0  0  0  0  0  0  0  0  0  0
    2.1215    0.1359    0.2655 C   0  0  0  0  0  0  0  0  0  0  0  0
    1.9570    0.0414    1.5755 C   0  0  0  0  0  0  0  0  0  0  0  0
    3.3975    0.6559   -0.3263 C   0  0  0  0  0  0  0  0  0  0  0  0
   -3.5836   -0.1054    1.0225 H   0  0  0  0  0  0  0  0  0  0  0  0
   -3.1417    1.5960    1.2319 H   0  0  0  0  0  0  0  0  0  0  0  0
   -3.3234    0.9087   -0.3903 H   0  0  0  0  0  0  0  0  0  0  0  0
   -1.2475    2.2814   -0.2563 H   0  0  0  0  0  0  0  0  0  0  0  0
    0.0556    1.8209    0.8354 H   0  0  0  0  0  0  0  0  0  0  0  0
   -0.4447    0.7058   -1.9527 H   0  0  0  0  0  0  0  0  0  0  0  0
    0.8571    1.7998   -1.4690 H   0  0  0  0  0  0  0  0  0  0  0  0
    0.1293   -2.1730   -1.1091 H   0  0  0  0  0  0  0  0  0  0  0  0
    0.4961   -1.8542    0.5753 H   0  0  0  0  0  0  0  0  0  0  0  0
    2.7350    0.3363    2.2593 H   0  0  0  0  0  0  0  0  0  0  0  0
    1.0564   -0.3324    2.0310 H   0  0  0  0  0  0  0  0  0  0  0  0
    3.1935    1.4664   -1.0234 H   0  0  0  0  0  0  0  0  0  0  0  0
    4.0684    1.0186    0.4469 H   0  0  0  0  0  0  0  0  0  0  0  0
    3.9000   -0.1371   -0.8790 H   0  0  0  0  0  0  0  0  0  0  0  0
  1  2  1  0  0  0  0
  2  3  1  0  0  0  0
  2  4  1  0  0  0  0
  4  5  1  0  0  0  0
  5  6  1  0  0  0  0
  6  7  1  0  0  0  0
  6  8  1  0  0  0  0
  2  9  1  0  0  0  0
  8  9  1  0  0  0  0
  9 10  2  0  0  0  0
  6 11  1  0  0  0  0
 11 12  2  0  0  0  0
 11 13  1  0  0  0  0
  1 14  1  0  0  0  0
  1 15  1  0  0  0  0
  1 16  1  0  0  0  0
  4 17  1  0  0  0  0
  4 18  1  0  0  0  0
  5 19  1  0  0  0  0
  5 20  1  0  0  0  0
  8 21  1  0  0  0  0
  8 22  1  0  0  0  0
 12 23  1  0  0  0  0
 12 24  1  0  0  0  0
 13 25  1  0  0  0  0
 13 26  1  0  0  0  0
 13 27  1  0  0  0  0
M  END
