 xtb: 6.7.1 (edcfbbe)
          04062518003D

 24 24  0     0  0            999 V2000
   -2.4961   -0.2754   -0.4943 C   0  0  0  0  0  0  0  0  0  0  0  0
   -1.1929   -0.1927    0.3085 C   0  0  0  0  0  0  0  0  0  0  0  0
   -1.3736   -0.5262    1.3424 H   0  0  0  0  0  0  0  0  0  0  0  0
   -0.6358    1.2443    0.3806 C   0  0  0  0  0  0  0  0  0  0  0  0
   -1.3746    1.9374   -0.0489 H   0  0  0  0  0  0  0  0  0  0  0  0
    0.6498    1.3525   -0.4722 C   0  0  0  0  0  0  0  0  0  0  0  0
    1.0703    2.3574   -0.3536 H   0  0  0  0  0  0  0  0  0  0  0  0
    1.7066    0.3157   -0.0280 C   0  0  0  0  0  0  0  0  0  0  0  0
    2.3757    0.1269   -0.8791 H   0  0  0  0  0  0  0  0  0  0  0  0
    1.0105   -1.0174    0.3042 C   0  0  0  0  0  0  0  0  0  0  0  0
    0.8920   -1.0703    1.4030 H   0  0  0  0  0  0  0  0  0  0  0  0
   -0.2669   -1.0811   -0.3019 O   0  0  0  0  0  0  0  0  0  0  0  0
    1.7804   -2.0477   -0.1903 O   0  0  0  0  0  0  0  0  0  0  0  0
    2.4257    0.7176    1.1064 O   0  0  0  0  0  0  0  0  0  0  0  0
    0.3540    1.2260   -1.8400 O   0  0  0  0  0  0  0  0  0  0  0  0
   -0.4138    1.5360    1.7366 O   0  0  0  0  0  0  0  0  0  0  0  0
   -3.0413   -1.5678   -0.4953 O   0  0  0  0  0  0  0  0  0  0  0  0
   -2.3094    0.0703   -1.5190 H   0  0  0  0  0  0  0  0  0  0  0  0
   -3.2428    0.3694   -0.0283 H   0  0  0  0  0  0  0  0  0  0  0  0
    1.3825   -2.9050    0.0276 H   0  0  0  0  0  0  0  0  0  0  0  0
    3.0951    1.3718    0.8590 H   0  0  0  0  0  0  0  0  0  0  0  0
    0.1082    0.3047   -2.0178 H   0  0  0  0  0  0  0  0  0  0  0  0
   -0.1287    2.4550    1.8409 H   0  0  0  0  0  0  0  0  0  0  0  0
   -2.3843   -2.1787   -0.8590 H   0  0  0  0  0  0  0  0  0  0  0  0
  1  2  1  0  0  0  0
  2  3  1  0  0  0  0
  2  4  1  0  0  0  0
  4  5  1  0  0  0  0
  4  6  1  0  0  0  0
  6  7  1  0  0  0  0
  6  8  1  0  0  0  0
  8  9  1  0  0  0  0
  8 10  1  0  0  0  0
 10 11  1  0  0  0  0
  2 12  1  0  0  0  0
 10 12  1  0  0  0  0
 10 13  1  0  0  0  0
  8 14  1  0  0  0  0
  6 15  1  0  0  0  0
  4 16  1  0  0  0  0
  1 17  1  0  0  0  0
  1 18  1  0  0  0  0
  1 19  1  0  0  0  0
 13 20  1  0  0  0  0
 14 21  1  0  0  0  0
 15 22  1  0  0  0  0
 16 23  1  0  0  0  0
 17 24  1  0  0  0  0
M  END
