 xtb: 6.7.1 (edcfbbe)
          04062518003D

 24 24  0     0  0            999 V2000
   -2.5620   -0.8862    0.2462 C   0  0  0  0  0  0  0  0  0  0  0  0
   -1.1341   -0.4513    0.6057 C   0  0  0  0  0  0  0  0  0  0  0  0
   -1.0376   -0.4113    1.7011 H   0  0  0  0  0  0  0  0  0  0  0  0
   -0.8324    0.9474    0.0480 C   0  0  0  0  0  0  0  0  0  0  0  0
   -1.0735    0.9623   -1.0252 H   0  0  0  0  0  0  0  0  0  0  0  0
    0.6560    1.2833    0.2192 C   0  0  0  0  0  0  0  0  0  0  0  0
    0.8582    1.4111    1.2971 H   0  0  0  0  0  0  0  0  0  0  0  0
    1.5311    0.1431   -0.3232 C   0  0  0  0  0  0  0  0  0  0  0  0
    1.3692    0.0590   -1.4040 H   0  0  0  0  0  0  0  0  0  0  0  0
    1.1061   -1.1723    0.3575 C   0  0  0  0  0  0  0  0  0  0  0  0
    1.2463   -1.0796    1.4491 H   0  0  0  0  0  0  0  0  0  0  0  0
   -0.2536   -1.4243    0.0736 O   0  0  0  0  0  0  0  0  0  0  0  0
    1.8558   -2.2600   -0.0278 O   0  0  0  0  0  0  0  0  0  0  0  0
    2.8973    0.4272   -0.1638 O   0  0  0  0  0  0  0  0  0  0  0  0
    0.9093    2.4919   -0.4566 O   0  0  0  0  0  0  0  0  0  0  0  0
   -1.6380    1.8597    0.7490 O   0  0  0  0  0  0  0  0  0  0  0  0
   -2.7478   -1.0200   -1.1373 O   0  0  0  0  0  0  0  0  0  0  0  0
   -3.2522   -0.1121    0.5840 H   0  0  0  0  0  0  0  0  0  0  0  0
   -2.7823   -1.8282    0.7613 H   0  0  0  0  0  0  0  0  0  0  0  0
    1.7166   -2.4496   -0.9688 H   0  0  0  0  0  0  0  0  0  0  0  0
    3.1743    0.2561    0.7479 H   0  0  0  0  0  0  0  0  0  0  0  0
    1.8680    2.5928   -0.5619 H   0  0  0  0  0  0  0  0  0  0  0  0
   -1.4537    2.7497    0.4130 H   0  0  0  0  0  0  0  0  0  0  0  0
   -2.1516   -1.7124   -1.4570 H   0  0  0  0  0  0  0  0  0  0  0  0
  1  2  1  0  0  0  0
  2  3  1  0  0  0  0
  2  4  1  0  0  0  0
  4  5  1  0  0  0  0
  4  6  1  0  0  0  0
  6  7  1  0  0  0  0
  6  8  1  0  0  0  0
  8  9  1  0  0  0  0
  8 10  1  0  0  0  0
 10 11  1  0  0  0  0
  2 12  1  0  0  0  0
 10 12  1  0  0  0  0
 10 13  1  0  0  0  0
  8 14  1  0  0  0  0
  6 15  1  0  0  0  0
  4 16  1  0  0  0  0
  1 17  1  0  0  0  0
  1 18  1  0  0  0  0
  1 19  1  0  0  0  0
 13 20  1  0  0  0  0
 14 21  1  0  0  0  0
 15 22  1  0  0  0  0
 16 23  1  0  0  0  0
 17 24  1  0  0  0  0
M  END
