 xtb: 6.7.1 (edcfbbe)
          04062518003D

 24 24  0     0  0            999 V2000
   -2.2453   -0.9756   -0.3696 C   0  0  0  0  0  0  0  0  0  0  0  0
   -1.1438   -0.2330    0.3965 C   0  0  0  0  0  0  0  0  0  0  0  0
   -1.5869    0.1873    1.3088 H   0  0  0  0  0  0  0  0  0  0  0  0
   -0.5579    0.9095   -0.4525 C   0  0  0  0  0  0  0  0  0  0  0  0
   -0.3710    0.5600   -1.4737 H   0  0  0  0  0  0  0  0  0  0  0  0
    0.7781    1.3211    0.1810 C   0  0  0  0  0  0  0  0  0  0  0  0
    0.6116    1.5007    1.2587 H   0  0  0  0  0  0  0  0  0  0  0  0
    1.7726    0.1577    0.0210 C   0  0  0  0  0  0  0  0  0  0  0  0
    2.2226    0.2203   -0.9753 H   0  0  0  0  0  0  0  0  0  0  0  0
    1.0456   -1.2046    0.1067 C   0  0  0  0  0  0  0  0  0  0  0  0
    1.6797   -1.8985    0.6772 H   0  0  0  0  0  0  0  0  0  0  0  0
   -0.1391   -1.1382    0.8635 O   0  0  0  0  0  0  0  0  0  0  0  0
    0.8303   -1.6640   -1.1898 O   0  0  0  0  0  0  0  0  0  0  0  0
    2.8372    0.2514    0.9307 O   0  0  0  0  0  0  0  0  0  0  0  0
    1.2437    2.4965   -0.4291 O   0  0  0  0  0  0  0  0  0  0  0  0
   -1.4710    1.9613   -0.5796 O   0  0  0  0  0  0  0  0  0  0  0  0
   -2.9901   -1.8320    0.4603 O   0  0  0  0  0  0  0  0  0  0  0  0
   -1.7971   -1.5292   -1.2039 H   0  0  0  0  0  0  0  0  0  0  0  0
   -2.9459   -0.2396   -0.7687 H   0  0  0  0  0  0  0  0  0  0  0  0
    0.6418   -2.6149   -1.1908 H   0  0  0  0  0  0  0  0  0  0  0  0
    2.5081    0.1713    1.8387 H   0  0  0  0  0  0  0  0  0  0  0  0
    2.1486    2.6724   -0.1314 H   0  0  0  0  0  0  0  0  0  0  0  0
   -1.4896    2.4880    0.2329 H   0  0  0  0  0  0  0  0  0  0  0  0
   -2.3771   -2.4134    0.9338 H   0  0  0  0  0  0  0  0  0  0  0  0
  1  2  1  0  0  0  0
  2  3  1  0  0  0  0
  2  4  1  0  0  0  0
  4  5  1  0  0  0  0
  4  6  1  0  0  0  0
  6  7  1  0  0  0  0
  6  8  1  0  0  0  0
  8  9  1  0  0  0  0
  8 10  1  0  0  0  0
 10 11  1  0  0  0  0
  2 12  1  0  0  0  0
 10 12  1  0  0  0  0
 10 13  1  0  0  0  0
  8 14  1  0  0  0  0
  6 15  1  0  0  0  0
  4 16  1  0  0  0  0
  1 17  1  0  0  0  0
  1 18  1  0  0  0  0
  1 19  1  0  0  0  0
 13 20  1  0  0  0  0
 14 21  1  0  0  0  0
 15 22  1  0  0  0  0
 16 23  1  0  0  0  0
 17 24  1  0  0  0  0
M  END
