 xtb: 6.7.1 (edcfbbe)
          04062518003D

 24 24  0     0  0            999 V2000
   -2.4625   -0.5274   -0.1828 C   0  0  0  0  0  0  0  0  0  0  0  0
   -1.0156   -0.2280    0.2239 C   0  0  0  0  0  0  0  0  0  0  0  0
   -0.9101   -0.3481    1.3136 H   0  0  0  0  0  0  0  0  0  0  0  0
   -0.6228    1.2205   -0.1462 C   0  0  0  0  0  0  0  0  0  0  0  0
   -1.1657    1.5206   -1.0490 H   0  0  0  0  0  0  0  0  0  0  0  0
    0.8958    1.2965   -0.4309 C   0  0  0  0  0  0  0  0  0  0  0  0
    1.2353    2.3067   -0.1571 H   0  0  0  0  0  0  0  0  0  0  0  0
    1.6268    0.2776    0.4531 C   0  0  0  0  0  0  0  0  0  0  0  0
    2.7013    0.3325    0.2397 H   0  0  0  0  0  0  0  0  0  0  0  0
    1.1606   -1.1494    0.0546 C   0  0  0  0  0  0  0  0  0  0  0  0
    1.2343   -1.8126    0.9344 H   0  0  0  0  0  0  0  0  0  0  0  0
   -0.1656   -1.1555   -0.4282 O   0  0  0  0  0  0  0  0  0  0  0  0
    1.9766   -1.6998   -0.9133 O   0  0  0  0  0  0  0  0  0  0  0  0
    1.3482    0.5909    1.7954 O   0  0  0  0  0  0  0  0  0  0  0  0
    1.2279    0.9964   -1.7612 O   0  0  0  0  0  0  0  0  0  0  0  0
   -1.0088    2.1306    0.8484 O   0  0  0  0  0  0  0  0  0  0  0  0
   -2.9831   -1.6966    0.3926 O   0  0  0  0  0  0  0  0  0  0  0  0
   -2.4934   -0.6893   -1.2618 H   0  0  0  0  0  0  0  0  0  0  0  0
   -3.0752    0.3454    0.0767 H   0  0  0  0  0  0  0  0  0  0  0  0
    1.8528   -1.1970   -1.7369 H   0  0  0  0  0  0  0  0  0  0  0  0
    1.9928    0.1659    2.3782 H   0  0  0  0  0  0  0  0  0  0  0  0
    0.8460    1.6585   -2.3546 H   0  0  0  0  0  0  0  0  0  0  0  0
   -0.4949    1.9495    1.6517 H   0  0  0  0  0  0  0  0  0  0  0  0
   -3.0185   -1.5982    1.3549 H   0  0  0  0  0  0  0  0  0  0  0  0
  1  2  1  0  0  0  0
  2  3  1  0  0  0  0
  2  4  1  0  0  0  0
  4  5  1  0  0  0  0
  4  6  1  0  0  0  0
  6  7  1  0  0  0  0
  6  8  1  0  0  0  0
  8  9  1  0  0  0  0
  8 10  1  0  0  0  0
 10 11  1  0  0  0  0
  2 12  1  0  0  0  0
 10 12  1  0  0  0  0
 10 13  1  0  0  0  0
  8 14  1  0  0  0  0
  6 15  1  0  0  0  0
  4 16  1  0  0  0  0
  1 17  1  0  0  0  0
  1 18  1  0  0  0  0
  1 19  1  0  0  0  0
 13 20  1  0  0  0  0
 14 21  1  0  0  0  0
 15 22  1  0  0  0  0
 16 23  1  0  0  0  0
 17 24  1  0  0  0  0
M  END
