 xtb: 6.7.1 (edcfbbe)
          04032521103D

 12 12  0     0  0            999 V2000
   -0.6779   -1.2404    0.0001 C   0  0  0  0  0  0  0  0  0  0  0  0
   -1.2573   -2.3001   -0.0000 O   0  0  0  0  0  0  0  0  0  0  0  0
   -1.3339   -0.0313   -0.0000 N   0  0  0  0  0  0  0  0  0  0  0  0
   -0.7352    1.2072    0.0002 C   0  0  0  0  0  0  0  0  0  0  0  0
   -1.3634    2.2388   -0.0001 O   0  0  0  0  0  0  0  0  0  0  0  0
    0.6399    1.1709    0.0001 N   0  0  0  0  0  0  0  0  0  0  0  0
    1.4132    0.0332   -0.0000 C   0  0  0  0  0  0  0  0  0  0  0  0
    2.6206    0.0611   -0.0000 O   0  0  0  0  0  0  0  0  0  0  0  0
    0.6940   -1.1394    0.0000 N   0  0  0  0  0  0  0  0  0  0  0  0
   -2.3495   -0.0552   -0.0002 H   0  0  0  0  0  0  0  0  0  0  0  0
    1.1267    2.0626   -0.0002 H   0  0  0  0  0  0  0  0  0  0  0  0
    1.2227   -2.0070   -0.0006 H   0  0  0  0  0  0  0  0  0  0  0  0
  1  2  2  0  0  0  0
  1  3  1  0  0  0  0
  3  4  1  0  0  0  0
  4  5  2  0  0  0  0
  4  6  1  0  0  0  0
  6  7  1  0  0  0  0
  7  8  2  0  0  0  0
  1  9  1  0  0  0  0
  7  9  1  0  0  0  0
  3 10  1  0  0  0  0
  6 11  1  0  0  0  0
  9 12  1  0  0  0  0
M  END
