 xtb: 6.7.1 (edcfbbe)
          04062518003D

 24 24  0     0  0            999 V2000
   -1.7189   -1.0305   -0.7397 C   0  0  0  0  0  0  0  0  0  0  0  0
   -1.0667   -0.5123    0.5498 C   0  0  0  0  0  0  0  0  0  0  0  0
   -1.7815   -0.6657    1.3680 H   0  0  0  0  0  0  0  0  0  0  0  0
   -0.7446    0.9864    0.4548 C   0  0  0  0  0  0  0  0  0  0  0  0
   -1.6209    1.4821    0.0129 H   0  0  0  0  0  0  0  0  0  0  0  0
    0.4901    1.2570   -0.4297 C   0  0  0  0  0  0  0  0  0  0  0  0
    0.8144    2.2882   -0.2213 H   0  0  0  0  0  0  0  0  0  0  0  0
    1.6554    0.3506    0.0001 C   0  0  0  0  0  0  0  0  0  0  0  0
    2.4145    0.3648   -0.7890 H   0  0  0  0  0  0  0  0  0  0  0  0
    1.2358   -1.1222    0.1868 C   0  0  0  0  0  0  0  0  0  0  0  0
    2.0080   -1.5971    0.8129 H   0  0  0  0  0  0  0  0  0  0  0  0
    0.0606   -1.2822    0.9445 O   0  0  0  0  0  0  0  0  0  0  0  0
    1.1576   -1.7326   -1.0621 O   0  0  0  0  0  0  0  0  0  0  0  0
    2.2662    0.8374    1.1658 O   0  0  0  0  0  0  0  0  0  0  0  0
    0.2411    1.0796   -1.7983 O   0  0  0  0  0  0  0  0  0  0  0  0
   -0.4434    1.5376    1.7192 O   0  0  0  0  0  0  0  0  0  0  0  0
   -2.9626   -0.3765   -0.8792 O   0  0  0  0  0  0  0  0  0  0  0  0
   -1.8580   -2.1137   -0.6346 H   0  0  0  0  0  0  0  0  0  0  0  0
   -1.0624   -0.8293   -1.5920 H   0  0  0  0  0  0  0  0  0  0  0  0
    1.0915   -2.6940   -0.9576 H   0  0  0  0  0  0  0  0  0  0  0  0
    1.5717    1.0264    1.8210 H   0  0  0  0  0  0  0  0  0  0  0  0
   -0.2799    1.8240   -2.1328 H   0  0  0  0  0  0  0  0  0  0  0  0
   -1.2042    1.4421    2.3099 H   0  0  0  0  0  0  0  0  0  0  0  0
   -3.3908   -0.6873   -1.6889 H   0  0  0  0  0  0  0  0  0  0  0  0
  1  2  1  0  0  0  0
  2  3  1  0  0  0  0
  2  4  1  0  0  0  0
  4  5  1  0  0  0  0
  4  6  1  0  0  0  0
  6  7  1  0  0  0  0
  6  8  1  0  0  0  0
  8  9  1  0  0  0  0
  8 10  1  0  0  0  0
 10 11  1  0  0  0  0
  2 12  1  0  0  0  0
 10 12  1  0  0  0  0
 10 13  1  0  0  0  0
  8 14  1  0  0  0  0
  6 15  1  0  0  0  0
  4 16  1  0  0  0  0
  1 17  1  0  0  0  0
  1 18  1  0  0  0  0
  1 19  1  0  0  0  0
 13 20  1  0  0  0  0
 14 21  1  0  0  0  0
 15 22  1  0  0  0  0
 16 23  1  0  0  0  0
 17 24  1  0  0  0  0
M  END
