 xtb: 6.7.1 (edcfbbe)
          04042516233D

 13 12  0     0  0            999 V2000
    0.6446   -1.4196   -0.0000 C   0  0  0  0  0  0  0  0  0  0  0  0
    0.5176    0.0742   -0.0000 C   0  0  0  0  0  0  0  0  0  0  0  0
    1.5895    0.8663    0.0000 C   0  0  0  0  0  0  0  0  0  0  0  0
   -0.8191    0.6555   -0.0000 C   0  0  0  0  0  0  0  0  0  0  0  0
   -1.9622   -0.0209    0.0000 C   0  0  0  0  0  0  0  0  0  0  0  0
    0.1627   -1.8383    0.8816 H   0  0  0  0  0  0  0  0  0  0  0  0
    1.6904   -1.7135   -0.0000 H   0  0  0  0  0  0  0  0  0  0  0  0
    0.1626   -1.8383   -0.8816 H   0  0  0  0  0  0  0  0  0  0  0  0
    1.5018    1.9399   -0.0000 H   0  0  0  0  0  0  0  0  0  0  0  0
    2.5905    0.4699   -0.0000 H   0  0  0  0  0  0  0  0  0  0  0  0
   -0.8439    1.7382    0.0000 H   0  0  0  0  0  0  0  0  0  0  0  0
   -2.9119    0.4859   -0.0001 H   0  0  0  0  0  0  0  0  0  0  0  0
   -1.9993   -1.0963    0.0000 H   0  0  0  0  0  0  0  0  0  0  0  0
  1  2  1  0  0  0  0
  2  3  2  0  0  0  0
  2  4  1  0  0  0  0
  4  5  2  0  0  0  0
  1  6  1  0  0  0  0
  1  7  1  0  0  0  0
  1  8  1  0  0  0  0
  3  9  1  0  0  0  0
  3 10  1  0  0  0  0
  4 11  1  0  0  0  0
  5 12  1  0  0  0  0
  5 13  1  0  0  0  0
M  END
