 xtb: 6.7.1 (edcfbbe)
          04032521443D

 18 18  0     0  0            999 V2000
    2.4116    0.0000    0.0135 C   0  0  0  0  0  0  0  0  0  0  0  0
    0.9984    0.0000   -0.3028 N   0  0  0  0  0  0  0  0  0  0  0  0
    0.3309   -1.1868    0.2073 C   0  0  0  0  0  0  0  0  0  0  0  0
   -1.1362   -1.1616   -0.2182 C   0  0  0  0  0  0  0  0  0  0  0  0
   -1.7898   -0.0000    0.2565 O   0  0  0  0  0  0  0  0  0  0  0  0
   -1.1363    1.1616   -0.2182 C   0  0  0  0  0  0  0  0  0  0  0  0
    0.3308    1.1867    0.2074 C   0  0  0  0  0  0  0  0  0  0  0  0
    2.6023    0.0007    1.0980 H   0  0  0  0  0  0  0  0  0  0  0  0
    2.8695    0.8853   -0.4232 H   0  0  0  0  0  0  0  0  0  0  0  0
    2.8692   -0.8859   -0.4221 H   0  0  0  0  0  0  0  0  0  0  0  0
    0.8155   -2.0705   -0.2104 H   0  0  0  0  0  0  0  0  0  0  0  0
    0.3865   -1.2367    1.3106 H   0  0  0  0  0  0  0  0  0  0  0  0
   -1.1958   -1.1920   -1.3149 H   0  0  0  0  0  0  0  0  0  0  0  0
   -1.6797   -2.0066    0.2053 H   0  0  0  0  0  0  0  0  0  0  0  0
   -1.1957    1.1919   -1.3150 H   0  0  0  0  0  0  0  0  0  0  0  0
   -1.6798    2.0067    0.2052 H   0  0  0  0  0  0  0  0  0  0  0  0
    0.8154    2.0705   -0.2103 H   0  0  0  0  0  0  0  0  0  0  0  0
    0.3864    1.2367    1.3107 H   0  0  0  0  0  0  0  0  0  0  0  0
  1  2  1  0  0  0  0
  2  3  1  0  0  0  0
  3  4  1  0  0  0  0
  4  5  1  0  0  0  0
  5  6  1  0  0  0  0
  2  7  1  0  0  0  0
  6  7  1  0  0  0  0
  1  8  1  0  0  0  0
  1  9  1  0  0  0  0
  1 10  1  0  0  0  0
  3 11  1  0  0  0  0
  3 12  1  0  0  0  0
  4 13  1  0  0  0  0
  4 14  1  0  0  0  0
  6 15  1  0  0  0  0
  6 16  1  0  0  0  0
  7 17  1  0  0  0  0
  7 18  1  0  0  0  0
M  END
