 xtb: 6.7.1 (edcfbbe)
          04062518003D

 24 24  0     0  0            999 V2000
   -2.4129   -0.9109    0.3502 C   0  0  0  0  0  0  0  0  0  0  0  0
   -0.9624   -0.4608    0.5802 C   0  0  0  0  0  0  0  0  0  0  0  0
   -0.7014   -0.6321    1.6363 H   0  0  0  0  0  0  0  0  0  0  0  0
   -0.7466    1.0347    0.2512 C   0  0  0  0  0  0  0  0  0  0  0  0
   -1.5254    1.3702   -0.4450 H   0  0  0  0  0  0  0  0  0  0  0  0
    0.6188    1.2388   -0.4509 C   0  0  0  0  0  0  0  0  0  0  0  0
    0.8993    2.2900   -0.3202 H   0  0  0  0  0  0  0  0  0  0  0  0
    1.6724    0.3500    0.2224 C   0  0  0  0  0  0  0  0  0  0  0  0
    2.6283    0.4439   -0.3070 H   0  0  0  0  0  0  0  0  0  0  0  0
    1.2426   -1.1357    0.0925 C   0  0  0  0  0  0  0  0  0  0  0  0
    1.4294   -1.6258    1.0696 H   0  0  0  0  0  0  0  0  0  0  0  0
   -0.1294   -1.2727   -0.2316 O   0  0  0  0  0  0  0  0  0  0  0  0
    1.9702   -1.7174   -0.9252 O   0  0  0  0  0  0  0  0  0  0  0  0
    1.8951    0.7058    1.5622 O   0  0  0  0  0  0  0  0  0  0  0  0
    0.5488    1.0245   -1.8330 O   0  0  0  0  0  0  0  0  0  0  0  0
   -0.7290    1.8153    1.4271 O   0  0  0  0  0  0  0  0  0  0  0  0
   -2.8954   -0.5784   -0.9244 O   0  0  0  0  0  0  0  0  0  0  0  0
   -3.0647   -0.4027    1.0624 H   0  0  0  0  0  0  0  0  0  0  0  0
   -2.4695   -1.9919    0.5223 H   0  0  0  0  0  0  0  0  0  0  0  0
    1.7117   -2.6466   -1.0334 H   0  0  0  0  0  0  0  0  0  0  0  0
    1.1161    1.1764    1.9065 H   0  0  0  0  0  0  0  0  0  0  0  0
    0.5237    0.0715   -2.0076 H   0  0  0  0  0  0  0  0  0  0  0  0
   -1.6295    1.9957    1.7288 H   0  0  0  0  0  0  0  0  0  0  0  0
   -2.3917   -1.0686   -1.5887 H   0  0  0  0  0  0  0  0  0  0  0  0
  1  2  1  0  0  0  0
  2  3  1  0  0  0  0
  2  4  1  0  0  0  0
  4  5  1  0  0  0  0
  4  6  1  0  0  0  0
  6  7  1  0  0  0  0
  6  8  1  0  0  0  0
  8  9  1  0  0  0  0
  8 10  1  0  0  0  0
 10 11  1  0  0  0  0
  2 12  1  0  0  0  0
 10 12  1  0  0  0  0
 10 13  1  0  0  0  0
  8 14  1  0  0  0  0
  6 15  1  0  0  0  0
  4 16  1  0  0  0  0
  1 17  1  0  0  0  0
  1 18  1  0  0  0  0
  1 19  1  0  0  0  0
 13 20  1  0  0  0  0
 14 21  1  0  0  0  0
 15 22  1  0  0  0  0
 16 23  1  0  0  0  0
 17 24  1  0  0  0  0
M  END
