 xtb: 6.7.1 (edcfbbe)
          04062518003D

 24 24  0     0  0            999 V2000
   -2.5536   -0.6878   -0.3547 C   0  0  0  0  0  0  0  0  0  0  0  0
   -1.1838   -0.3073    0.2173 C   0  0  0  0  0  0  0  0  0  0  0  0
   -1.2511   -0.2716    1.3167 H   0  0  0  0  0  0  0  0  0  0  0  0
   -0.7143    1.0635   -0.3133 C   0  0  0  0  0  0  0  0  0  0  0  0
   -0.7105    1.0262   -1.4091 H   0  0  0  0  0  0  0  0  0  0  0  0
    0.7160    1.3332    0.1956 C   0  0  0  0  0  0  0  0  0  0  0  0
    0.6988    1.3892    1.2926 H   0  0  0  0  0  0  0  0  0  0  0  0
    1.6267    0.1633   -0.2288 C   0  0  0  0  0  0  0  0  0  0  0  0
    1.6429    0.0915   -1.3227 H   0  0  0  0  0  0  0  0  0  0  0  0
    1.0318   -1.1488    0.3376 C   0  0  0  0  0  0  0  0  0  0  0  0
    1.0077   -1.0959    1.4398 H   0  0  0  0  0  0  0  0  0  0  0  0
   -0.2766   -1.3276   -0.1646 O   0  0  0  0  0  0  0  0  0  0  0  0
    1.7759   -2.2650    0.0324 O   0  0  0  0  0  0  0  0  0  0  0  0
    2.9639    0.3461    0.1429 O   0  0  0  0  0  0  0  0  0  0  0  0
    1.2098    2.5814   -0.2074 O   0  0  0  0  0  0  0  0  0  0  0  0
   -1.6059    2.0921    0.0156 O   0  0  0  0  0  0  0  0  0  0  0  0
   -3.1166   -1.7926    0.3012 O   0  0  0  0  0  0  0  0  0  0  0  0
   -2.4392   -0.8848   -1.4273 H   0  0  0  0  0  0  0  0  0  0  0  0
   -3.2421    0.1467   -0.2129 H   0  0  0  0  0  0  0  0  0  0  0  0
    1.7797   -2.4128   -0.9263 H   0  0  0  0  0  0  0  0  0  0  0  0
    3.0387    0.4597    1.1009 H   0  0  0  0  0  0  0  0  0  0  0  0
    1.2704    2.6251   -1.1720 H   0  0  0  0  0  0  0  0  0  0  0  0
   -1.5285    2.3169    0.9543 H   0  0  0  0  0  0  0  0  0  0  0  0
   -2.5186   -2.5474    0.2007 H   0  0  0  0  0  0  0  0  0  0  0  0
  1  2  1  0  0  0  0
  2  3  1  0  0  0  0
  2  4  1  0  0  0  0
  4  5  1  0  0  0  0
  4  6  1  0  0  0  0
  6  7  1  0  0  0  0
  6  8  1  0  0  0  0
  8  9  1  0  0  0  0
  8 10  1  0  0  0  0
 10 11  1  0  0  0  0
  2 12  1  0  0  0  0
 10 12  1  0  0  0  0
 10 13  1  0  0  0  0
  8 14  1  0  0  0  0
  6 15  1  0  0  0  0
  4 16  1  0  0  0  0
  1 17  1  0  0  0  0
  1 18  1  0  0  0  0
  1 19  1  0  0  0  0
 13 20  1  0  0  0  0
 14 21  1  0  0  0  0
 15 22  1  0  0  0  0
 16 23  1  0  0  0  0
 17 24  1  0  0  0  0
M  END
