 xtb: 6.7.1 (edcfbbe)
          04062518003D

 24 24  0     0  0            999 V2000
   -2.3759   -1.1456   -0.3929 C   0  0  0  0  0  0  0  0  0  0  0  0
   -1.0809   -0.6189    0.2342 C   0  0  0  0  0  0  0  0  0  0  0  0
   -1.1731   -0.6295    1.3330 H   0  0  0  0  0  0  0  0  0  0  0  0
   -0.7949    0.8347   -0.1925 C   0  0  0  0  0  0  0  0  0  0  0  0
   -0.8951    0.9263   -1.2852 H   0  0  0  0  0  0  0  0  0  0  0  0
    0.6358    1.2463    0.1792 C   0  0  0  0  0  0  0  0  0  0  0  0
    0.6617    1.4029    1.2713 H   0  0  0  0  0  0  0  0  0  0  0  0
    1.6644    0.1676   -0.2027 C   0  0  0  0  0  0  0  0  0  0  0  0
    1.7305    0.1003   -1.2939 H   0  0  0  0  0  0  0  0  0  0  0  0
    1.2113   -1.1997    0.3274 C   0  0  0  0  0  0  0  0  0  0  0  0
    1.1624   -1.1598    1.4398 H   0  0  0  0  0  0  0  0  0  0  0  0
   -0.0674   -1.5146   -0.1728 O   0  0  0  0  0  0  0  0  0  0  0  0
    2.0921   -2.1709   -0.0966 O   0  0  0  0  0  0  0  0  0  0  0  0
    2.9459    0.5328    0.2351 O   0  0  0  0  0  0  0  0  0  0  0  0
    0.9325    2.4517   -0.4795 O   0  0  0  0  0  0  0  0  0  0  0  0
   -1.6660    1.7209    0.4615 O   0  0  0  0  0  0  0  0  0  0  0  0
   -3.4581   -0.3581    0.0430 O   0  0  0  0  0  0  0  0  0  0  0  0
   -2.4950   -2.1917   -0.0887 H   0  0  0  0  0  0  0  0  0  0  0  0
   -2.2669   -1.1052   -1.4835 H   0  0  0  0  0  0  0  0  0  0  0  0
    1.6817   -3.0457   -0.0048 H   0  0  0  0  0  0  0  0  0  0  0  0
    3.0232    0.4059    1.1922 H   0  0  0  0  0  0  0  0  0  0  0  0
    1.8819    2.6272   -0.3798 H   0  0  0  0  0  0  0  0  0  0  0  0
   -2.5767    1.3963    0.3448 H   0  0  0  0  0  0  0  0  0  0  0  0
   -4.2801   -0.7047   -0.3327 H   0  0  0  0  0  0  0  0  0  0  0  0
  1  2  1  0  0  0  0
  2  3  1  0  0  0  0
  2  4  1  0  0  0  0
  4  5  1  0  0  0  0
  4  6  1  0  0  0  0
  6  7  1  0  0  0  0
  6  8  1  0  0  0  0
  8  9  1  0  0  0  0
  8 10  1  0  0  0  0
 10 11  1  0  0  0  0
  2 12  1  0  0  0  0
 10 12  1  0  0  0  0
 10 13  1  0  0  0  0
  8 14  1  0  0  0  0
  6 15  1  0  0  0  0
  4 16  1  0  0  0  0
  1 17  1  0  0  0  0
  1 18  1  0  0  0  0
  1 19  1  0  0  0  0
 13 20  1  0  0  0  0
 14 21  1  0  0  0  0
 15 22  1  0  0  0  0
 16 23  1  0  0  0  0
 17 24  1  0  0  0  0
M  END
