 xtb: 6.7.1 (edcfbbe)
          04062505533D

 31 32  0     0  0            999 V2000
    2.0904    2.7288    0.9716 C   0  0  0  0  0  0  0  0  0  0  0  0
    2.1698    1.7034   -0.1569 C   0  0  0  0  0  0  0  0  0  0  0  0
    3.0088    0.4638    0.2441 C   0  0  0  0  0  0  0  0  0  0  0  0
    2.0129   -0.6533    0.1813 C   0  0  0  0  0  0  0  0  0  0  0  0
    2.1400   -2.0002    0.4376 C   0  0  0  0  0  0  0  0  0  0  0  0
    1.0225   -2.8144    0.3054 C   0  0  0  0  0  0  0  0  0  0  0  0
   -0.1965   -2.2853   -0.0800 C   0  0  0  0  0  0  0  0  0  0  0  0
   -0.3270   -0.9281   -0.3445 C   0  0  0  0  0  0  0  0  0  0  0  0
    0.7859   -0.1124   -0.2018 C   0  0  0  0  0  0  0  0  0  0  0  0
    0.8165    1.2216   -0.4073 O   0  0  0  0  0  0  0  0  0  0  0  0
   -1.5409   -0.3804   -0.7767 O   0  0  0  0  0  0  0  0  0  0  0  0
   -2.5483   -0.2945    0.1331 C   0  0  0  0  0  0  0  0  0  0  0  0
   -2.4470   -0.6601    1.2905 O   0  0  0  0  0  0  0  0  0  0  0  0
   -3.6357    0.2348   -0.4321 N   0  0  0  0  0  0  0  0  0  0  0  0
   -4.8643    0.4771    0.2897 C   0  0  0  0  0  0  0  0  0  0  0  0
    2.6763    2.3433   -1.4473 C   0  0  0  0  0  0  0  0  0  0  0  0
    1.4319    3.5440    0.6836 H   0  0  0  0  0  0  0  0  0  0  0  0
    1.6890    2.2630    1.8689 H   0  0  0  0  0  0  0  0  0  0  0  0
    3.0789    3.1248    1.1826 H   0  0  0  0  0  0  0  0  0  0  0  0
    3.8331    0.3002   -0.4505 H   0  0  0  0  0  0  0  0  0  0  0  0
    3.4221    0.5713    1.2472 H   0  0  0  0  0  0  0  0  0  0  0  0
    3.0889   -2.4135    0.7393 H   0  0  0  0  0  0  0  0  0  0  0  0
    1.0992   -3.8706    0.5062 H   0  0  0  0  0  0  0  0  0  0  0  0
   -1.0670   -2.9154   -0.1750 H   0  0  0  0  0  0  0  0  0  0  0  0
   -3.5746    0.5119   -1.4001 H   0  0  0  0  0  0  0  0  0  0  0  0
   -5.0906    1.5426    0.3045 H   0  0  0  0  0  0  0  0  0  0  0  0
   -4.7270    0.1215    1.3089 H   0  0  0  0  0  0  0  0  0  0  0  0
   -5.6856   -0.0648   -0.1773 H   0  0  0  0  0  0  0  0  0  0  0  0
    3.6781    2.7337   -1.2973 H   0  0  0  0  0  0  0  0  0  0  0  0
    2.0158    3.1550   -1.7398 H   0  0  0  0  0  0  0  0  0  0  0  0
    2.6920    1.6059   -2.2465 H   0  0  0  0  0  0  0  0  0  0  0  0
  1  2  1  0  0  0  0
  2  3  1  0  0  0  0
  3  4  1  0  0  0  0
  4  5  4  0  0  0  0
  5  6  4  0  0  0  0
  6  7  4  0  0  0  0
  7  8  4  0  0  0  0
  4  9  4  0  0  0  0
  8  9  4  0  0  0  0
  2 10  1  0  0  0  0
  9 10  1  0  0  0  0
  8 11  1  0  0  0  0
 11 12  1  0  0  0  0
 12 13  2  0  0  0  0
 12 14  4  0  0  0  0
 14 15  1  0  0  0  0
  2 16  1  0  0  0  0
  1 17  1  0  0  0  0
  1 18  1  0  0  0  0
  1 19  1  0  0  0  0
  3 20  1  0  0  0  0
  3 21  1  0  0  0  0
  5 22  1  0  0  0  0
  6 23  1  0  0  0  0
  7 24  1  0  0  0  0
 14 25  1  0  0  0  0
 15 26  1  0  0  0  0
 15 27  1  0  0  0  0
 15 28  1  0  0  0  0
 16 29  1  0  0  0  0
 16 30  1  0  0  0  0
 16 31  1  0  0  0  0
M  END
