 xtb: 6.7.1 (edcfbbe)
          04062520053D

 27 27  0     0  0            999 V2000
   -3.4284    0.5473    0.0882 C   0  0  0  0  0  0  0  0  0  0  0  0
   -1.9326    0.4761    0.1091 C   0  0  0  0  0  0  0  0  0  0  0  0
   -1.1506    1.5158   -0.1459 C   0  0  0  0  0  0  0  0  0  0  0  0
    0.3458    1.4778   -0.1508 C   0  0  0  0  0  0  0  0  0  0  0  0
    0.8543    0.0389   -0.2601 C   0  0  0  0  0  0  0  0  0  0  0  0
    0.5601   -0.3483   -1.2424 H   0  0  0  0  0  0  0  0  0  0  0  0
    0.1192   -0.8020    0.7896 C   0  0  0  0  0  0  0  0  0  0  0  0
   -1.3617   -0.8920    0.4122 C   0  0  0  0  0  0  0  0  0  0  0  0
   -1.9250   -1.3274    1.2560 H   0  0  0  0  0  0  0  0  0  0  0  0
   -1.5713   -1.7001   -0.7401 O   0  0  0  0  0  0  0  0  0  0  0  0
    2.3520   -0.0766   -0.1325 C   0  0  0  0  0  0  0  0  0  0  0  0
    3.0678   -0.6895   -1.0635 C   0  0  0  0  0  0  0  0  0  0  0  0
    2.9933    0.5139    1.0871 C   0  0  0  0  0  0  0  0  0  0  0  0
   -3.8304    0.3367    1.0789 H   0  0  0  0  0  0  0  0  0  0  0  0
   -3.8160   -0.2046   -0.5977 H   0  0  0  0  0  0  0  0  0  0  0  0
   -3.7672    1.5292   -0.2294 H   0  0  0  0  0  0  0  0  0  0  0  0
   -1.5972    2.4793   -0.3530 H   0  0  0  0  0  0  0  0  0  0  0  0
    0.7248    2.0731   -0.9846 H   0  0  0  0  0  0  0  0  0  0  0  0
    0.7080    1.9376    0.7733 H   0  0  0  0  0  0  0  0  0  0  0  0
    0.5512   -1.8039    0.8425 H   0  0  0  0  0  0  0  0  0  0  0  0
    0.1980   -0.3373    1.7730 H   0  0  0  0  0  0  0  0  0  0  0  0
   -1.2397   -2.5906   -0.5641 H   0  0  0  0  0  0  0  0  0  0  0  0
    4.1368   -0.7965   -0.9829 H   0  0  0  0  0  0  0  0  0  0  0  0
    2.6154   -1.1081   -1.9471 H   0  0  0  0  0  0  0  0  0  0  0  0
    2.4602    0.2173    1.9873 H   0  0  0  0  0  0  0  0  0  0  0  0
    4.0271    0.1893    1.1676 H   0  0  0  0  0  0  0  0  0  0  0  0
    2.9822    1.6014    1.0300 H   0  0  0  0  0  0  0  0  0  0  0  0
  1  2  1  0  0  0  0
  2  3  2  0  0  0  0
  3  4  1  0  0  0  0
  4  5  1  0  0  0  0
  5  6  1  0  0  0  0
  5  7  1  0  0  0  0
  2  8  1  0  0  0  0
  7  8  1  0  0  0  0
  8  9  1  0  0  0  0
  8 10  1  0  0  0  0
  5 11  1  0  0  0  0
 11 12  2  0  0  0  0
 11 13  1  0  0  0  0
  1 14  1  0  0  0  0
  1 15  1  0  0  0  0
  1 16  1  0  0  0  0
  3 17  1  0  0  0  0
  4 18  1  0  0  0  0
  4 19  1  0  0  0  0
  7 20  1  0  0  0  0
  7 21  1  0  0  0  0
 10 22  1  0  0  0  0
 12 23  1  0  0  0  0
 12 24  1  0  0  0  0
 13 25  1  0  0  0  0
 13 26  1  0  0  0  0
 13 27  1  0  0  0  0
M  END
