 xtb: 6.7.1 (edcfbbe)
          04062518003D

 24 24  0     0  0            999 V2000
   -1.8689   -1.0833   -0.5300 C   0  0  0  0  0  0  0  0  0  0  0  0
   -1.0684   -0.5145    0.6765 C   0  0  0  0  0  0  0  0  0  0  0  0
   -1.6623   -0.6135    1.5912 H   0  0  0  0  0  0  0  0  0  0  0  0
   -0.7420    0.9781    0.5259 C   0  0  0  0  0  0  0  0  0  0  0  0
   -1.6434    1.4707    0.1438 H   0  0  0  0  0  0  0  0  0  0  0  0
    0.4204    1.1940   -0.4705 C   0  0  0  0  0  0  0  0  0  0  0  0
    0.6982    2.2567   -0.4655 H   0  0  0  0  0  0  0  0  0  0  0  0
    1.6324    0.3732   -0.0052 C   0  0  0  0  0  0  0  0  0  0  0  0
    2.4153    0.4086   -0.7716 H   0  0  0  0  0  0  0  0  0  0  0  0
    1.2328   -1.1082    0.1693 C   0  0  0  0  0  0  0  0  0  0  0  0
    2.0273   -1.6040    0.7454 H   0  0  0  0  0  0  0  0  0  0  0  0
    0.0856   -1.3058    0.9553 O   0  0  0  0  0  0  0  0  0  0  0  0
    1.1175   -1.6680   -1.1111 O   0  0  0  0  0  0  0  0  0  0  0  0
    2.2060    0.8861    1.1643 O   0  0  0  0  0  0  0  0  0  0  0  0
    0.0262    0.8766   -1.7857 O   0  0  0  0  0  0  0  0  0  0  0  0
   -0.4100    1.4802    1.8059 O   0  0  0  0  0  0  0  0  0  0  0  0
   -2.6341   -0.1284   -1.2215 O   0  0  0  0  0  0  0  0  0  0  0  0
   -2.5758   -1.8278   -0.1580 H   0  0  0  0  0  0  0  0  0  0  0  0
   -1.1739   -1.5798   -1.2117 H   0  0  0  0  0  0  0  0  0  0  0  0
    1.1081   -2.6355   -1.0579 H   0  0  0  0  0  0  0  0  0  0  0  0
    1.5051    0.9703    1.8380 H   0  0  0  0  0  0  0  0  0  0  0  0
    0.3610   -0.0070   -2.0105 H   0  0  0  0  0  0  0  0  0  0  0  0
   -0.5431    2.4381    1.8283 H   0  0  0  0  0  0  0  0  0  0  0  0
   -2.0357    0.4040   -1.7746 H   0  0  0  0  0  0  0  0  0  0  0  0
  1  2  1  0  0  0  0
  2  3  1  0  0  0  0
  2  4  1  0  0  0  0
  4  5  1  0  0  0  0
  4  6  1  0  0  0  0
  6  7  1  0  0  0  0
  6  8  1  0  0  0  0
  8  9  1  0  0  0  0
  8 10  1  0  0  0  0
 10 11  1  0  0  0  0
  2 12  1  0  0  0  0
 10 12  1  0  0  0  0
 10 13  1  0  0  0  0
  8 14  1  0  0  0  0
  6 15  1  0  0  0  0
  4 16  1  0  0  0  0
  1 17  1  0  0  0  0
  1 18  1  0  0  0  0
  1 19  1  0  0  0  0
 13 20  1  0  0  0  0
 14 21  1  0  0  0  0
 15 22  1  0  0  0  0
 16 23  1  0  0  0  0
 17 24  1  0  0  0  0
M  END
