 xtb: 6.7.1 (edcfbbe)
          04062518003D

 24 24  0     0  0            999 V2000
   -2.0734   -1.3768   -0.1100 C   0  0  0  0  0  0  0  0  0  0  0  0
   -1.0013   -0.5184    0.5884 C   0  0  0  0  0  0  0  0  0  0  0  0
   -1.4177   -0.1733    1.5446 H   0  0  0  0  0  0  0  0  0  0  0  0
   -0.6205    0.6970   -0.2687 C   0  0  0  0  0  0  0  0  0  0  0  0
   -0.5118    0.3998   -1.3180 H   0  0  0  0  0  0  0  0  0  0  0  0
    0.7278    1.2533    0.2124 C   0  0  0  0  0  0  0  0  0  0  0  0
    0.6671    1.4479    1.2985 H   0  0  0  0  0  0  0  0  0  0  0  0
    1.8212    0.2029   -0.0419 C   0  0  0  0  0  0  0  0  0  0  0  0
    2.1992    0.3413   -1.0596 H   0  0  0  0  0  0  0  0  0  0  0  0
    1.2302   -1.2268    0.0539 C   0  0  0  0  0  0  0  0  0  0  0  0
    1.9875   -1.8735    0.5176 H   0  0  0  0  0  0  0  0  0  0  0  0
    0.1390   -1.2964    0.9432 O   0  0  0  0  0  0  0  0  0  0  0  0
    0.8989   -1.6601   -1.2260 O   0  0  0  0  0  0  0  0  0  0  0  0
    2.9320    0.3534    0.7973 O   0  0  0  0  0  0  0  0  0  0  0  0
    1.0556    2.4453   -0.4542 O   0  0  0  0  0  0  0  0  0  0  0  0
   -1.6178    1.6873   -0.2588 O   0  0  0  0  0  0  0  0  0  0  0  0
   -3.3222   -0.7336   -0.1366 O   0  0  0  0  0  0  0  0  0  0  0  0
   -2.2147   -2.2984    0.4591 H   0  0  0  0  0  0  0  0  0  0  0  0
   -1.7376   -1.6278   -1.1239 H   0  0  0  0  0  0  0  0  0  0  0  0
    0.8010   -2.6244   -1.2439 H   0  0  0  0  0  0  0  0  0  0  0  0
    2.6538    0.3327    1.7253 H   0  0  0  0  0  0  0  0  0  0  0  0
    0.2304    2.8977   -0.6981 H   0  0  0  0  0  0  0  0  0  0  0  0
   -1.7854    1.9787    0.6508 H   0  0  0  0  0  0  0  0  0  0  0  0
   -3.2330    0.1105   -0.6070 H   0  0  0  0  0  0  0  0  0  0  0  0
  1  2  1  0  0  0  0
  2  3  1  0  0  0  0
  2  4  1  0  0  0  0
  4  5  1  0  0  0  0
  4  6  1  0  0  0  0
  6  7  1  0  0  0  0
  6  8  1  0  0  0  0
  8  9  1  0  0  0  0
  8 10  1  0  0  0  0
 10 11  1  0  0  0  0
  2 12  1  0  0  0  0
 10 12  1  0  0  0  0
 10 13  1  0  0  0  0
  8 14  1  0  0  0  0
  6 15  1  0  0  0  0
  4 16  1  0  0  0  0
  1 17  1  0  0  0  0
  1 18  1  0  0  0  0
  1 19  1  0  0  0  0
 13 20  1  0  0  0  0
 14 21  1  0  0  0  0
 15 22  1  0  0  0  0
 16 23  1  0  0  0  0
 17 24  1  0  0  0  0
M  END
