 xtb: 6.7.1 (edcfbbe)
          04042519303D

 15 14  0     0  0            999 V2000
    0.7201   -1.4487   -0.1170 C   0  0  0  0  0  0  0  0  0  0  0  0
    0.4373   -0.0132    0.3304 C   0  0  0  0  0  0  0  0  0  0  0  0
    1.6081    0.9053   -0.0060 C   0  0  0  0  0  0  0  0  0  0  0  0
   -0.7077    0.5410   -0.3144 O   0  0  0  0  0  0  0  0  0  0  0  0
   -1.9464    0.0271    0.1169 C   0  0  0  0  0  0  0  0  0  0  0  0
    0.8101   -1.4821   -1.2000 H   0  0  0  0  0  0  0  0  0  0  0  0
    1.6493   -1.7904    0.3282 H   0  0  0  0  0  0  0  0  0  0  0  0
   -0.0775   -2.1200    0.1906 H   0  0  0  0  0  0  0  0  0  0  0  0
    0.2616   -0.0018    1.4201 H   0  0  0  0  0  0  0  0  0  0  0  0
    2.5034    0.5731    0.5097 H   0  0  0  0  0  0  0  0  0  0  0  0
    1.3758    1.9231    0.2943 H   0  0  0  0  0  0  0  0  0  0  0  0
    1.7826    0.8934   -1.0782 H   0  0  0  0  0  0  0  0  0  0  0  0
   -2.0878   -1.0121   -0.1958 H   0  0  0  0  0  0  0  0  0  0  0  0
   -2.7070    0.6494   -0.3493 H   0  0  0  0  0  0  0  0  0  0  0  0
   -2.0375    0.0896    1.2076 H   0  0  0  0  0  0  0  0  0  0  0  0
  1  2  1  0  0  0  0
  2  3  1  0  0  0  0
  2  4  1  0  0  0  0
  4  5  1  0  0  0  0
  1  6  1  0  0  0  0
  1  7  1  0  0  0  0
  1  8  1  0  0  0  0
  2  9  1  0  0  0  0
  3 10  1  0  0  0  0
  3 11  1  0  0  0  0
  3 12  1  0  0  0  0
  5 13  1  0  0  0  0
  5 14  1  0  0  0  0
  5 15  1  0  0  0  0
M  END
