 xtb: 6.7.1 (edcfbbe)
          04042520083D

 15 15  0     0  0            999 V2000
   -0.7616   -1.7226   -0.0000 C   0  0  0  0  0  0  0  0  0  0  0  0
    0.5525   -1.3008   -0.0000 C   0  0  0  0  0  0  0  0  0  0  0  0
    0.8396    0.0676   -0.0001 C   0  0  0  0  0  0  0  0  0  0  0  0
   -0.1974    0.9981   -0.0001 C   0  0  0  0  0  0  0  0  0  0  0  0
   -1.5194    0.5677   -0.0001 C   0  0  0  0  0  0  0  0  0  0  0  0
   -1.7948   -0.7993    0.0001 C   0  0  0  0  0  0  0  0  0  0  0  0
   -2.4933    1.5057    0.0000 O   0  0  0  0  0  0  0  0  0  0  0  0
    2.2228    0.5273    0.0000 C   0  0  0  0  0  0  0  0  0  0  0  0
    3.2058   -0.1863    0.0000 O   0  0  0  0  0  0  0  0  0  0  0  0
   -0.9905   -2.7766    0.0001 H   0  0  0  0  0  0  0  0  0  0  0  0
    1.3730   -2.0012    0.0005 H   0  0  0  0  0  0  0  0  0  0  0  0
    0.0082    2.0570    0.0000 H   0  0  0  0  0  0  0  0  0  0  0  0
   -2.8192   -1.1411    0.0001 H   0  0  0  0  0  0  0  0  0  0  0  0
   -3.3729    1.0966    0.0002 H   0  0  0  0  0  0  0  0  0  0  0  0
    2.3384    1.6269   -0.0003 H   0  0  0  0  0  0  0  0  0  0  0  0
  1  2  4  0  0  0  0
  2  3  4  0  0  0  0
  3  4  4  0  0  0  0
  4  5  4  0  0  0  0
  1  6  4  0  0  0  0
  5  6  4  0  0  0  0
  5  7  1  0  0  0  0
  3  8  1  0  0  0  0
  8  9  2  0  0  0  0
  1 10  1  0  0  0  0
  2 11  1  0  0  0  0
  4 12  1  0  0  0  0
  6 13  1  0  0  0  0
  7 14  1  0  0  0  0
  8 15  1  0  0  0  0
M  END
