 xtb: 6.7.1 (edcfbbe)
          04032521473D

 16 16  0     0  0            999 V2000
   -1.4751    0.7739    0.0006 C   0  0  0  0  0  0  0  0  0  0  0  0
   -1.3315   -0.6574   -0.5070 C   0  0  0  0  0  0  0  0  0  0  0  0
   -0.1812   -1.2018    0.3373 C   0  0  0  0  0  0  0  0  0  0  0  0
    0.7954   -0.0167    0.4888 C   0  0  0  0  0  0  0  0  0  0  0  0
   -0.0272    1.2418    0.1504 C   0  0  0  0  0  0  0  0  0  0  0  0
    1.8864   -0.0771   -0.4125 O   0  0  0  0  0  0  0  0  0  0  0  0
   -1.9707    0.7728    0.9727 H   0  0  0  0  0  0  0  0  0  0  0  0
   -2.0429    1.4082   -0.6772 H   0  0  0  0  0  0  0  0  0  0  0  0
   -2.2436   -1.2409   -0.3951 H   0  0  0  0  0  0  0  0  0  0  0  0
   -1.0458   -0.6485   -1.5596 H   0  0  0  0  0  0  0  0  0  0  0  0
   -0.5479   -1.4979    1.3204 H   0  0  0  0  0  0  0  0  0  0  0  0
    0.3036   -2.0596   -0.1263 H   0  0  0  0  0  0  0  0  0  0  0  0
    1.1865    0.0307    1.5154 H   0  0  0  0  0  0  0  0  0  0  0  0
    0.0867    2.0177    0.9043 H   0  0  0  0  0  0  0  0  0  0  0  0
    0.3508    1.6257   -0.7978 H   0  0  0  0  0  0  0  0  0  0  0  0
    2.4298   -0.8503   -0.2112 H   0  0  0  0  0  0  0  0  0  0  0  0
  1  2  1  0  0  0  0
  2  3  1  0  0  0  0
  3  4  1  0  0  0  0
  1  5  1  0  0  0  0
  4  5  1  0  0  0  0
  4  6  1  0  0  0  0
  1  7  1  0  0  0  0
  1  8  1  0  0  0  0
  2  9  1  0  0  0  0
  2 10  1  0  0  0  0
  3 11  1  0  0  0  0
  3 12  1  0  0  0  0
  4 13  1  0  0  0  0
  5 14  1  0  0  0  0
  5 15  1  0  0  0  0
  6 16  1  0  0  0  0
M  END
