 xtb: 6.7.1 (edcfbbe)
          04062518003D

 24 24  0     0  0            999 V2000
   -2.0012   -1.2154   -0.3499 C   0  0  0  0  0  0  0  0  0  0  0  0
   -1.2852   -0.3875    0.7298 C   0  0  0  0  0  0  0  0  0  0  0  0
   -1.9573   -0.2990    1.5896 H   0  0  0  0  0  0  0  0  0  0  0  0
   -0.9654    1.0390    0.2448 C   0  0  0  0  0  0  0  0  0  0  0  0
   -1.3409    1.1585   -0.7832 H   0  0  0  0  0  0  0  0  0  0  0  0
    0.5546    1.2804    0.2218 C   0  0  0  0  0  0  0  0  0  0  0  0
    0.9194    1.3847    1.2504 H   0  0  0  0  0  0  0  0  0  0  0  0
    1.2242    0.0676   -0.4291 C   0  0  0  0  0  0  0  0  0  0  0  0
    0.7343   -0.1433   -1.3905 H   0  0  0  0  0  0  0  0  0  0  0  0
    1.0066   -1.1457    0.4921 C   0  0  0  0  0  0  0  0  0  0  0  0
    1.8292   -1.1734    1.2263 H   0  0  0  0  0  0  0  0  0  0  0  0
   -0.1514   -1.0434    1.2833 O   0  0  0  0  0  0  0  0  0  0  0  0
    1.0117   -2.2943   -0.2964 O   0  0  0  0  0  0  0  0  0  0  0  0
    2.5921    0.3309   -0.6095 O   0  0  0  0  0  0  0  0  0  0  0  0
    0.8539    2.4962   -0.4118 O   0  0  0  0  0  0  0  0  0  0  0  0
   -1.6155    1.9541    1.0942 O   0  0  0  0  0  0  0  0  0  0  0  0
   -1.3926   -1.0393   -1.6105 O   0  0  0  0  0  0  0  0  0  0  0  0
   -3.0445   -0.8772   -0.3867 H   0  0  0  0  0  0  0  0  0  0  0  0
   -1.9719   -2.2664   -0.0437 H   0  0  0  0  0  0  0  0  0  0  0  0
    0.9610   -3.0828    0.2650 H   0  0  0  0  0  0  0  0  0  0  0  0
    2.9961   -0.3992   -1.1002 H   0  0  0  0  0  0  0  0  0  0  0  0
    0.8379    2.3776   -1.3725 H   0  0  0  0  0  0  0  0  0  0  0  0
   -1.2790    2.8430    0.9013 H   0  0  0  0  0  0  0  0  0  0  0  0
   -1.8159   -1.6303   -2.2493 H   0  0  0  0  0  0  0  0  0  0  0  0
  1  2  1  0  0  0  0
  2  3  1  0  0  0  0
  2  4  1  0  0  0  0
  4  5  1  0  0  0  0
  4  6  1  0  0  0  0
  6  7  1  0  0  0  0
  6  8  1  0  0  0  0
  8  9  1  0  0  0  0
  8 10  1  0  0  0  0
 10 11  1  0  0  0  0
  2 12  1  0  0  0  0
 10 12  1  0  0  0  0
 10 13  1  0  0  0  0
  8 14  1  0  0  0  0
  6 15  1  0  0  0  0
  4 16  1  0  0  0  0
  1 17  1  0  0  0  0
  1 18  1  0  0  0  0
  1 19  1  0  0  0  0
 13 20  1  0  0  0  0
 14 21  1  0  0  0  0
 15 22  1  0  0  0  0
 16 23  1  0  0  0  0
 17 24  1  0  0  0  0
M  END
