 xtb: 6.7.1 (edcfbbe)
          04032521353D

 14 13  0     0  0            999 V2000
   -0.9209    1.3817   -0.4486 C   0  0  0  0  0  0  0  0  0  0  0  0
   -0.4735    0.0000   -0.0000 C   0  0  0  0  0  0  0  0  0  0  0  0
   -0.9206   -1.0794   -0.9723 C   0  0  0  0  0  0  0  0  0  0  0  0
   -0.9207   -0.3025    1.4209 C   0  0  0  0  0  0  0  0  0  0  0  0
    1.3614    0.0001    0.0000 Cl  0  0  0  0  0  0  0  0  0  0  0  0
   -0.5510    1.5994   -1.4472 H   0  0  0  0  0  0  0  0  0  0  0  0
   -2.0072    1.4197   -0.4612 H   0  0  0  0  0  0  0  0  0  0  0  0
   -0.5516    2.1444    0.2322 H   0  0  0  0  0  0  0  0  0  0  0  0
   -0.5503   -2.0530   -0.6616 H   0  0  0  0  0  0  0  0  0  0  0  0
   -2.0069   -1.1098   -0.9986 H   0  0  0  0  0  0  0  0  0  0  0  0
   -0.5516   -0.8709   -1.9732 H   0  0  0  0  0  0  0  0  0  0  0  0
   -2.0070   -0.3104    1.4602 H   0  0  0  0  0  0  0  0  0  0  0  0
   -0.5507    0.4536    2.1086 H   0  0  0  0  0  0  0  0  0  0  0  0
   -0.5514   -1.2734    1.7409 H   0  0  0  0  0  0  0  0  0  0  0  0
  1  2  1  0  0  0  0
  2  3  1  0  0  0  0
  2  4  1  0  0  0  0
  2  5  1  0  0  0  0
  1  6  1  0  0  0  0
  1  7  1  0  0  0  0
  1  8  1  0  0  0  0
  3  9  1  0  0  0  0
  3 10  1  0  0  0  0
  3 11  1  0  0  0  0
  4 12  1  0  0  0  0
  4 13  1  0  0  0  0
  4 14  1  0  0  0  0
M  END
