 xtb: 6.7.1 (edcfbbe)
          04062518003D

 24 24  0     0  0            999 V2000
   -2.2258   -0.8825   -0.1742 C   0  0  0  0  0  0  0  0  0  0  0  0
   -1.1450   -0.3360    0.7867 C   0  0  0  0  0  0  0  0  0  0  0  0
   -1.6150   -0.3463    1.7793 H   0  0  0  0  0  0  0  0  0  0  0  0
   -0.7215    1.1167    0.4925 C   0  0  0  0  0  0  0  0  0  0  0  0
   -1.5661    1.6367    0.0187 H   0  0  0  0  0  0  0  0  0  0  0  0
    0.4897    1.2360   -0.4620 C   0  0  0  0  0  0  0  0  0  0  0  0
    0.8331    2.2774   -0.4027 H   0  0  0  0  0  0  0  0  0  0  0  0
    1.6204    0.3174    0.0179 C   0  0  0  0  0  0  0  0  0  0  0  0
    2.4154    0.2977   -0.7362 H   0  0  0  0  0  0  0  0  0  0  0  0
    1.0787   -1.1232    0.1410 C   0  0  0  0  0  0  0  0  0  0  0  0
    1.8301   -1.7386    0.6614 H   0  0  0  0  0  0  0  0  0  0  0  0
   -0.0473   -1.2339    0.9658 O   0  0  0  0  0  0  0  0  0  0  0  0
    0.8638   -1.5878   -1.1595 O   0  0  0  0  0  0  0  0  0  0  0  0
    2.2125    0.7543    1.2087 O   0  0  0  0  0  0  0  0  0  0  0  0
    0.1320    0.9905   -1.7976 O   0  0  0  0  0  0  0  0  0  0  0  0
   -0.3423    1.7816    1.6800 O   0  0  0  0  0  0  0  0  0  0  0  0
   -1.8810   -0.9781   -1.5282 O   0  0  0  0  0  0  0  0  0  0  0  0
   -3.1203   -0.2570   -0.0461 H   0  0  0  0  0  0  0  0  0  0  0  0
   -2.4657   -1.9010    0.1406 H   0  0  0  0  0  0  0  0  0  0  0  0
    0.4573   -2.4674   -1.1445 H   0  0  0  0  0  0  0  0  0  0  0  0
    1.5144    1.0533    1.8180 H   0  0  0  0  0  0  0  0  0  0  0  0
    0.3560    0.0647   -2.0109 H   0  0  0  0  0  0  0  0  0  0  0  0
   -1.1092    1.9081    2.2566 H   0  0  0  0  0  0  0  0  0  0  0  0
   -1.6466   -0.1010   -1.8746 H   0  0  0  0  0  0  0  0  0  0  0  0
  1  2  1  0  0  0  0
  2  3  1  0  0  0  0
  2  4  1  0  0  0  0
  4  5  1  0  0  0  0
  4  6  1  0  0  0  0
  6  7  1  0  0  0  0
  6  8  1  0  0  0  0
  8  9  1  0  0  0  0
  8 10  1  0  0  0  0
 10 11  1  0  0  0  0
  2 12  1  0  0  0  0
 10 12  1  0  0  0  0
 10 13  1  0  0  0  0
  8 14  1  0  0  0  0
  6 15  1  0  0  0  0
  4 16  1  0  0  0  0
  1 17  1  0  0  0  0
  1 18  1  0  0  0  0
  1 19  1  0  0  0  0
 13 20  1  0  0  0  0
 14 21  1  0  0  0  0
 15 22  1  0  0  0  0
 16 23  1  0  0  0  0
 17 24  1  0  0  0  0
M  END
