 xtb: 6.7.1 (edcfbbe)
          04062518003D

 24 24  0     0  0            999 V2000
   -2.5518   -0.7005   -0.3371 C   0  0  0  0  0  0  0  0  0  0  0  0
   -1.1758   -0.3136    0.2182 C   0  0  0  0  0  0  0  0  0  0  0  0
   -1.2201   -0.2967    1.3199 H   0  0  0  0  0  0  0  0  0  0  0  0
   -0.7244    1.0624   -0.2957 C   0  0  0  0  0  0  0  0  0  0  0  0
   -0.7409    1.0586   -1.3913 H   0  0  0  0  0  0  0  0  0  0  0  0
    0.7118    1.3379    0.1764 C   0  0  0  0  0  0  0  0  0  0  0  0
    0.7187    1.4354    1.2761 H   0  0  0  0  0  0  0  0  0  0  0  0
    1.6411    0.1776   -0.2036 C   0  0  0  0  0  0  0  0  0  0  0  0
    1.7161    0.1392   -1.3016 H   0  0  0  0  0  0  0  0  0  0  0  0
    1.0471   -1.1519    0.3009 C   0  0  0  0  0  0  0  0  0  0  0  0
    1.0455   -1.1398    1.4030 H   0  0  0  0  0  0  0  0  0  0  0  0
   -0.2647   -1.3164   -0.1965 O   0  0  0  0  0  0  0  0  0  0  0  0
    1.7813   -2.2546   -0.0647 O   0  0  0  0  0  0  0  0  0  0  0  0
    2.9098    0.3287    0.3739 O   0  0  0  0  0  0  0  0  0  0  0  0
    1.2311    2.5094   -0.4069 O   0  0  0  0  0  0  0  0  0  0  0  0
   -1.5878    2.0996    0.0895 O   0  0  0  0  0  0  0  0  0  0  0  0
   -3.1046   -1.8027    0.3309 O   0  0  0  0  0  0  0  0  0  0  0  0
   -2.4461   -0.9026   -1.4095 H   0  0  0  0  0  0  0  0  0  0  0  0
   -3.2447    0.1302   -0.1938 H   0  0  0  0  0  0  0  0  0  0  0  0
    1.7783   -2.3503   -1.0306 H   0  0  0  0  0  0  0  0  0  0  0  0
    3.2606    1.1954    0.1157 H   0  0  0  0  0  0  0  0  0  0  0  0
    0.5482    3.1974   -0.3870 H   0  0  0  0  0  0  0  0  0  0  0  0
   -1.6912    2.1052    1.0530 H   0  0  0  0  0  0  0  0  0  0  0  0
   -2.5101   -2.5592    0.2226 H   0  0  0  0  0  0  0  0  0  0  0  0
  1  2  1  0  0  0  0
  2  3  1  0  0  0  0
  2  4  1  0  0  0  0
  4  5  1  0  0  0  0
  4  6  1  0  0  0  0
  6  7  1  0  0  0  0
  6  8  1  0  0  0  0
  8  9  1  0  0  0  0
  8 10  1  0  0  0  0
 10 11  1  0  0  0  0
  2 12  1  0  0  0  0
 10 12  1  0  0  0  0
 10 13  1  0  0  0  0
  8 14  1  0  0  0  0
  6 15  1  0  0  0  0
  4 16  1  0  0  0  0
  1 17  1  0  0  0  0
  1 18  1  0  0  0  0
  1 19  1  0  0  0  0
 13 20  1  0  0  0  0
 14 21  1  0  0  0  0
 15 22  1  0  0  0  0
 16 23  1  0  0  0  0
 17 24  1  0  0  0  0
M  END
