 xtb: 6.7.1 (edcfbbe)
          04032521123D

  5  4  0     0  0            999 V2000
    0.0000   -0.0001   -0.0000 C   0  0  0  0  0  0  0  0  0  0  0  0
   -0.5570   -0.0024   -1.6787 Cl  0  0  0  0  0  0  0  0  0  0  0  0
   -0.6946    1.3871    0.8496 Cl  0  0  0  0  0  0  0  0  0  0  0  0
    1.7650    0.1103    0.0355 Cl  0  0  0  0  0  0  0  0  0  0  0  0
   -0.5134   -1.4950    0.7936 Cl  0  0  0  0  0  0  0  0  0  0  0  0
  1  2  1  0  0  0  0
  1  3  1  0  0  0  0
  1  4  1  0  0  0  0
  1  5  1  0  0  0  0
M  END
