 xtb: 6.7.1 (edcfbbe)
          04062518003D

 24 24  0     0  0            999 V2000
   -2.2780   -0.9956    0.7550 C   0  0  0  0  0  0  0  0  0  0  0  0
   -0.8459   -0.4434    0.7692 C   0  0  0  0  0  0  0  0  0  0  0  0
   -0.6210   -0.0706    1.7803 H   0  0  0  0  0  0  0  0  0  0  0  0
   -0.6436    0.7001   -0.2354 C   0  0  0  0  0  0  0  0  0  0  0  0
   -0.6685    0.2857   -1.2513 H   0  0  0  0  0  0  0  0  0  0  0  0
    0.7387    1.3054    0.0247 C   0  0  0  0  0  0  0  0  0  0  0  0
    0.6606    1.8844    0.9602 H   0  0  0  0  0  0  0  0  0  0  0  0
    1.7961    0.2003    0.2261 C   0  0  0  0  0  0  0  0  0  0  0  0
    2.6182    0.4074   -0.4718 H   0  0  0  0  0  0  0  0  0  0  0  0
    1.2560   -1.1894   -0.1434 C   0  0  0  0  0  0  0  0  0  0  0  0
    1.9726   -1.9387    0.2301 H   0  0  0  0  0  0  0  0  0  0  0  0
    0.0450   -1.5187    0.4840 O   0  0  0  0  0  0  0  0  0  0  0  0
    1.1515   -1.2540   -1.5323 O   0  0  0  0  0  0  0  0  0  0  0  0
    2.2495    0.1254    1.5534 O   0  0  0  0  0  0  0  0  0  0  0  0
    1.1617    2.1392   -1.0236 O   0  0  0  0  0  0  0  0  0  0  0  0
   -1.5959    1.7243   -0.0893 O   0  0  0  0  0  0  0  0  0  0  0  0
   -2.8338   -0.8736   -0.5368 O   0  0  0  0  0  0  0  0  0  0  0  0
   -2.8786   -0.4319    1.4793 H   0  0  0  0  0  0  0  0  0  0  0  0
   -2.2188   -2.0421    1.0688 H   0  0  0  0  0  0  0  0  0  0  0  0
    0.8634   -2.1423   -1.7954 H   0  0  0  0  0  0  0  0  0  0  0  0
    2.7973    0.8992    1.7529 H   0  0  0  0  0  0  0  0  0  0  0  0
    0.4517    2.7693   -1.2188 H   0  0  0  0  0  0  0  0  0  0  0  0
   -2.4475    1.3909   -0.4101 H   0  0  0  0  0  0  0  0  0  0  0  0
   -3.6332   -1.4148   -0.5936 H   0  0  0  0  0  0  0  0  0  0  0  0
  1  2  1  0  0  0  0
  2  3  1  0  0  0  0
  2  4  1  0  0  0  0
  4  5  1  0  0  0  0
  4  6  1  0  0  0  0
  6  7  1  0  0  0  0
  6  8  1  0  0  0  0
  8  9  1  0  0  0  0
  8 10  1  0  0  0  0
 10 11  1  0  0  0  0
  2 12  1  0  0  0  0
 10 12  1  0  0  0  0
 10 13  1  0  0  0  0
  8 14  1  0  0  0  0
  6 15  1  0  0  0  0
  4 16  1  0  0  0  0
  1 17  1  0  0  0  0
  1 18  1  0  0  0  0
  1 19  1  0  0  0  0
 13 20  1  0  0  0  0
 14 21  1  0  0  0  0
 15 22  1  0  0  0  0
 16 23  1  0  0  0  0
 17 24  1  0  0  0  0
M  END
