 xtb: 6.7.1 (edcfbbe)
          04062518003D

 24 24  0     0  0            999 V2000
   -2.4505   -0.5810   -0.0509 C   0  0  0  0  0  0  0  0  0  0  0  0
   -1.0011   -0.2228    0.2867 C   0  0  0  0  0  0  0  0  0  0  0  0
   -0.8854   -0.1744    1.3773 H   0  0  0  0  0  0  0  0  0  0  0  0
   -0.6112    1.1305   -0.3210 C   0  0  0  0  0  0  0  0  0  0  0  0
   -0.8944    1.1210   -1.3833 H   0  0  0  0  0  0  0  0  0  0  0  0
    0.9241    1.3305   -0.2695 C   0  0  0  0  0  0  0  0  0  0  0  0
    1.1154    2.2921    0.2280 H   0  0  0  0  0  0  0  0  0  0  0  0
    1.6223    0.2152    0.5364 C   0  0  0  0  0  0  0  0  0  0  0  0
    2.7078    0.2730    0.3586 H   0  0  0  0  0  0  0  0  0  0  0  0
    1.1911   -1.1660    0.0033 C   0  0  0  0  0  0  0  0  0  0  0  0
    1.4721   -1.9265    0.7485 H   0  0  0  0  0  0  0  0  0  0  0  0
   -0.1927   -1.2599   -0.2492 O   0  0  0  0  0  0  0  0  0  0  0  0
    1.8767   -1.4932   -1.1564 O   0  0  0  0  0  0  0  0  0  0  0  0
    1.3468    0.2703    1.9112 O   0  0  0  0  0  0  0  0  0  0  0  0
    1.3960    1.3476   -1.5983 O   0  0  0  0  0  0  0  0  0  0  0  0
   -1.3008    2.1312    0.3813 O   0  0  0  0  0  0  0  0  0  0  0  0
   -2.8774   -1.7471    0.6024 O   0  0  0  0  0  0  0  0  0  0  0  0
   -2.5393   -0.6951   -1.1394 H   0  0  0  0  0  0  0  0  0  0  0  0
   -3.1019    0.2251    0.2895 H   0  0  0  0  0  0  0  0  0  0  0  0
    1.6036   -0.8826   -1.8647 H   0  0  0  0  0  0  0  0  0  0  0  0
    1.7226    1.0767    2.2950 H   0  0  0  0  0  0  0  0  0  0  0  0
    2.2962    1.7028   -1.6301 H   0  0  0  0  0  0  0  0  0  0  0  0
   -1.3058    2.9521   -0.1322 H   0  0  0  0  0  0  0  0  0  0  0  0
   -2.2612   -2.4595    0.3777 H   0  0  0  0  0  0  0  0  0  0  0  0
  1  2  1  0  0  0  0
  2  3  1  0  0  0  0
  2  4  1  0  0  0  0
  4  5  1  0  0  0  0
  4  6  1  0  0  0  0
  6  7  1  0  0  0  0
  6  8  1  0  0  0  0
  8  9  1  0  0  0  0
  8 10  1  0  0  0  0
 10 11  1  0  0  0  0
  2 12  1  0  0  0  0
 10 12  1  0  0  0  0
 10 13  1  0  0  0  0
  8 14  1  0  0  0  0
  6 15  1  0  0  0  0
  4 16  1  0  0  0  0
  1 17  1  0  0  0  0
  1 18  1  0  0  0  0
  1 19  1  0  0  0  0
 13 20  1  0  0  0  0
 14 21  1  0  0  0  0
 15 22  1  0  0  0  0
 16 23  1  0  0  0  0
 17 24  1  0  0  0  0
M  END
