 xtb: 6.7.1 (edcfbbe)
          04052518533D

 23 23  0     0  0            999 V2000
   -2.6546   -0.4074    1.0618 C   0  0  0  0  0  0  0  0  0  0  0  0
   -1.7587    0.0099   -0.0711 C   0  0  0  0  0  0  0  0  0  0  0  0
   -2.1769    0.1186   -1.2084 O   0  0  0  0  0  0  0  0  0  0  0  0
   -0.3095    0.2549    0.2848 C   0  0  0  0  0  0  0  0  0  0  0  0
    0.4290    1.0069   -0.8221 C   0  0  0  0  0  0  0  0  0  0  0  0
    1.8956    1.2047   -0.4548 C   0  0  0  0  0  0  0  0  0  0  0  0
    2.5688   -0.1405   -0.1997 C   0  0  0  0  0  0  0  0  0  0  0  0
    1.8366   -0.8992    0.9028 C   0  0  0  0  0  0  0  0  0  0  0  0
    0.3695   -1.1027    0.5352 C   0  0  0  0  0  0  0  0  0  0  0  0
   -2.1441   -0.3840    2.0176 H   0  0  0  0  0  0  0  0  0  0  0  0
   -3.5196    0.2521    1.0852 H   0  0  0  0  0  0  0  0  0  0  0  0
   -3.0264   -1.4109    0.8636 H   0  0  0  0  0  0  0  0  0  0  0  0
   -0.2742    0.8379    1.2105 H   0  0  0  0  0  0  0  0  0  0  0  0
    0.3490    0.4370   -1.7505 H   0  0  0  0  0  0  0  0  0  0  0  0
   -0.0544    1.9720   -0.9905 H   0  0  0  0  0  0  0  0  0  0  0  0
    2.4071    1.7313   -1.2621 H   0  0  0  0  0  0  0  0  0  0  0  0
    1.9638    1.8218    0.4440 H   0  0  0  0  0  0  0  0  0  0  0  0
    2.5536   -0.7315   -1.1181 H   0  0  0  0  0  0  0  0  0  0  0  0
    3.6115    0.0130    0.0839 H   0  0  0  0  0  0  0  0  0  0  0  0
    2.3079   -1.8704    1.0623 H   0  0  0  0  0  0  0  0  0  0  0  0
    1.9017   -0.3349    1.8354 H   0  0  0  0  0  0  0  0  0  0  0  0
    0.2997   -1.7035   -0.3745 H   0  0  0  0  0  0  0  0  0  0  0  0
   -0.1428   -1.6380    1.3353 H   0  0  0  0  0  0  0  0  0  0  0  0
  1  2  1  0  0  0  0
  2  3  2  0  0  0  0
  2  4  1  0  0  0  0
  4  5  1  0  0  0  0
  5  6  1  0  0  0  0
  6  7  1  0  0  0  0
  7  8  1  0  0  0  0
  4  9  1  0  0  0  0
  8  9  1  0  0  0  0
  1 10  1  0  0  0  0
  1 11  1  0  0  0  0
  1 12  1  0  0  0  0
  4 13  1  0  0  0  0
  5 14  1  0  0  0  0
  5 15  1  0  0  0  0
  6 16  1  0  0  0  0
  6 17  1  0  0  0  0
  7 18  1  0  0  0  0
  7 19  1  0  0  0  0
  8 20  1  0  0  0  0
  8 21  1  0  0  0  0
  9 22  1  0  0  0  0
  9 23  1  0  0  0  0
M  END
