 xtb: 6.7.1 (edcfbbe)
          04032522113D

 11 10  0     0  0            999 V2000
   -3.2100   -0.0464    0.0000 C   0  0  0  0  0  0  0  0  0  0  0  0
   -1.7879    0.5048   -0.0000 C   0  0  0  0  0  0  0  0  0  0  0  0
   -0.7878   -0.6349   -0.0000 C   0  0  0  0  0  0  0  0  0  0  0  0
    1.0678    0.0365    0.0000 Br  0  0  0  0  0  0  0  0  0  0  0  0
   -3.3841   -0.6568    0.8827 H   0  0  0  0  0  0  0  0  0  0  0  0
   -3.9235    0.7721    0.0000 H   0  0  0  0  0  0  0  0  0  0  0  0
   -3.3841   -0.6568   -0.8827 H   0  0  0  0  0  0  0  0  0  0  0  0
   -1.6316    1.1282    0.8828 H   0  0  0  0  0  0  0  0  0  0  0  0
   -1.6316    1.1282   -0.8828 H   0  0  0  0  0  0  0  0  0  0  0  0
   -0.8754   -1.2530   -0.8920 H   0  0  0  0  0  0  0  0  0  0  0  0
   -0.8754   -1.2530    0.8920 H   0  0  0  0  0  0  0  0  0  0  0  0
  1  2  1  0  0  0  0
  2  3  1  0  0  0  0
  3  4  1  0  0  0  0
  1  5  1  0  0  0  0
  1  6  1  0  0  0  0
  1  7  1  0  0  0  0
  2  8  1  0  0  0  0
  2  9  1  0  0  0  0
  3 10  1  0  0  0  0
  3 11  1  0  0  0  0
M  END
