 xtb: 6.7.1 (edcfbbe)
          04032521123D

 12 11  0     0  0            999 V2000
    1.6775   -1.2091    0.0465 C   0  0  0  0  0  0  0  0  0  0  0  0
    0.9404    0.0126   -0.4906 C   0  0  0  0  0  0  0  0  0  0  0  0
    0.9005   -0.0147   -1.5891 H   0  0  0  0  0  0  0  0  0  0  0  0
   -0.5220   -0.0222   -0.0165 C   0  0  0  0  0  0  0  0  0  0  0  0
   -1.1892   -1.0878   -0.4949 F   0  0  0  0  0  0  0  0  0  0  0  0
   -0.6529   -0.0569    1.3166 F   0  0  0  0  0  0  0  0  0  0  0  0
   -1.2101    1.0624   -0.4316 F   0  0  0  0  0  0  0  0  0  0  0  0
    1.5643    1.1722   -0.0203 O   0  0  0  0  0  0  0  0  0  0  0  0
    2.6986   -1.1877   -0.3190 H   0  0  0  0  0  0  0  0  0  0  0  0
    1.1878   -2.1193   -0.2851 H   0  0  0  0  0  0  0  0  0  0  0  0
    1.6935   -1.1743    1.1325 H   0  0  0  0  0  0  0  0  0  0  0  0
    1.2464    1.9628   -0.4808 H   0  0  0  0  0  0  0  0  0  0  0  0
  1  2  1  0  0  0  0
  2  3  1  0  0  0  0
  2  4  1  0  0  0  0
  4  5  1  0  0  0  0
  4  6  1  0  0  0  0
  4  7  1  0  0  0  0
  2  8  1  0  0  0  0
  1  9  1  0  0  0  0
  1 10  1  0  0  0  0
  1 11  1  0  0  0  0
  8 12  1  0  0  0  0
M  END
