 xtb: 6.7.1 (edcfbbe)
          04062520053D

 27 27  0     0  0            999 V2000
   -3.3334    0.4723   -0.2238 C   0  0  0  0  0  0  0  0  0  0  0  0
   -1.8728    0.4716    0.0782 C   0  0  0  0  0  0  0  0  0  0  0  0
   -1.1116    1.5551    0.1744 C   0  0  0  0  0  0  0  0  0  0  0  0
    0.3452    1.4038    0.4703 C   0  0  0  0  0  0  0  0  0  0  0  0
    0.9824    0.3499   -0.4654 C   0  0  0  0  0  0  0  0  0  0  0  0
    1.0783    0.8163   -1.4497 H   0  0  0  0  0  0  0  0  0  0  0  0
    0.0814   -0.8925   -0.6138 C   0  0  0  0  0  0  0  0  0  0  0  0
   -1.1753   -0.8514    0.2782 C   0  0  0  0  0  0  0  0  0  0  0  0
   -0.8623   -0.9182    1.3361 H   0  0  0  0  0  0  0  0  0  0  0  0
   -2.0504   -1.9203   -0.0182 O   0  0  0  0  0  0  0  0  0  0  0  0
    2.3707    0.0133    0.0340 C   0  0  0  0  0  0  0  0  0  0  0  0
    2.5765   -0.7292    1.1108 C   0  0  0  0  0  0  0  0  0  0  0  0
    3.4980    0.6055   -0.7538 C   0  0  0  0  0  0  0  0  0  0  0  0
   -3.8794   -0.0140    0.5828 H   0  0  0  0  0  0  0  0  0  0  0  0
   -3.5235   -0.0993   -1.1306 H   0  0  0  0  0  0  0  0  0  0  0  0
   -3.6976    1.4879   -0.3494 H   0  0  0  0  0  0  0  0  0  0  0  0
   -1.5180    2.5454    0.0412 H   0  0  0  0  0  0  0  0  0  0  0  0
    0.8694    2.3528    0.3587 H   0  0  0  0  0  0  0  0  0  0  0  0
    0.4755    1.0704    1.5046 H   0  0  0  0  0  0  0  0  0  0  0  0
   -0.2700   -0.9719   -1.6445 H   0  0  0  0  0  0  0  0  0  0  0  0
    0.6523   -1.7947   -0.3868 H   0  0  0  0  0  0  0  0  0  0  0  0
   -1.5790   -2.7552    0.0975 H   0  0  0  0  0  0  0  0  0  0  0  0
    3.5681   -0.9486    1.4678 H   0  0  0  0  0  0  0  0  0  0  0  0
    1.7658   -1.1485    1.6825 H   0  0  0  0  0  0  0  0  0  0  0  0
    3.4803    0.2250   -1.7742 H   0  0  0  0  0  0  0  0  0  0  0  0
    3.3915    1.6883   -0.8014 H   0  0  0  0  0  0  0  0  0  0  0  0
    4.4584    0.3658   -0.3061 H   0  0  0  0  0  0  0  0  0  0  0  0
  1  2  1  0  0  0  0
  2  3  2  0  0  0  0
  3  4  1  0  0  0  0
  4  5  1  0  0  0  0
  5  6  1  0  0  0  0
  5  7  1  0  0  0  0
  2  8  1  0  0  0  0
  7  8  1  0  0  0  0
  8  9  1  0  0  0  0
  8 10  1  0  0  0  0
  5 11  1  0  0  0  0
 11 12  2  0  0  0  0
 11 13  1  0  0  0  0
  1 14  1  0  0  0  0
  1 15  1  0  0  0  0
  1 16  1  0  0  0  0
  3 17  1  0  0  0  0
  4 18  1  0  0  0  0
  4 19  1  0  0  0  0
  7 20  1  0  0  0  0
  7 21  1  0  0  0  0
 10 22  1  0  0  0  0
 12 23  1  0  0  0  0
 12 24  1  0  0  0  0
 13 25  1  0  0  0  0
 13 26  1  0  0  0  0
 13 27  1  0  0  0  0
M  END
