 xtb: 6.7.1 (edcfbbe)
          04062507063D

 24 24  0     0  0            999 V2000
   -3.8531   -0.6264    0.0018 C   0  0  0  0  0  0  0  0  0  0  0  0
   -2.6726    0.2113    0.0003 N   0  0  0  0  0  0  0  0  0  0  0  0
   -2.8952    1.6443   -0.0012 C   0  0  0  0  0  0  0  0  0  0  0  0
   -1.4477   -0.3719   -0.0004 C   0  0  0  0  0  0  0  0  0  0  0  0
   -1.3149   -1.5978   -0.0000 O   0  0  0  0  0  0  0  0  0  0  0  0
   -0.3909    0.5037   -0.0010 N   0  0  0  0  0  0  0  0  0  0  0  0
    0.9774    0.2312   -0.0005 C   0  0  0  0  0  0  0  0  0  0  0  0
    1.8474    1.3229    0.0006 C   0  0  0  0  0  0  0  0  0  0  0  0
    3.2146    1.1306    0.0012 C   0  0  0  0  0  0  0  0  0  0  0  0
    3.7395   -0.1515    0.0007 C   0  0  0  0  0  0  0  0  0  0  0  0
    2.8802   -1.2367   -0.0005 C   0  0  0  0  0  0  0  0  0  0  0  0
    1.5089   -1.0553   -0.0011 C   0  0  0  0  0  0  0  0  0  0  0  0
   -3.5322   -1.6659    0.0058 H   0  0  0  0  0  0  0  0  0  0  0  0
   -4.4510   -0.4387   -0.8912 H   0  0  0  0  0  0  0  0  0  0  0  0
   -4.4528   -0.4322    0.8922 H   0  0  0  0  0  0  0  0  0  0  0  0
   -2.4767    2.1109   -0.8956 H   0  0  0  0  0  0  0  0  0  0  0  0
   -2.4792    2.1124    0.8936 H   0  0  0  0  0  0  0  0  0  0  0  0
   -3.9681    1.8147   -0.0030 H   0  0  0  0  0  0  0  0  0  0  0  0
   -0.6100    1.4889   -0.0001 H   0  0  0  0  0  0  0  0  0  0  0  0
    1.4464    2.3260    0.0009 H   0  0  0  0  0  0  0  0  0  0  0  0
    3.8738    1.9855    0.0019 H   0  0  0  0  0  0  0  0  0  0  0  0
    4.8078   -0.3031    0.0013 H   0  0  0  0  0  0  0  0  0  0  0  0
    3.2765   -2.2410   -0.0008 H   0  0  0  0  0  0  0  0  0  0  0  0
    0.8442   -1.9033   -0.0019 H   0  0  0  0  0  0  0  0  0  0  0  0
  1  2  1  0  0  0  0
  2  3  1  0  0  0  0
  2  4  4  0  0  0  0
  4  5  2  0  0  0  0
  4  6  1  0  0  0  0
  6  7  1  0  0  0  0
  7  8  4  0  0  0  0
  8  9  4  0  0  0  0
  9 10  4  0  0  0  0
 10 11  4  0  0  0  0
  7 12  4  0  0  0  0
 11 12  4  0  0  0  0
  1 13  1  0  0  0  0
  1 14  1  0  0  0  0
  1 15  1  0  0  0  0
  3 16  1  0  0  0  0
  3 17  1  0  0  0  0
  3 18  1  0  0  0  0
  6 19  1  0  0  0  0
  8 20  1  0  0  0  0
  9 21  1  0  0  0  0
 10 22  1  0  0  0  0
 11 23  1  0  0  0  0
 12 24  1  0  0  0  0
M  END
