 xtb: 6.7.1 (edcfbbe)
          04052503113D

 18 18  0     0  0            999 V2000
   -3.1823   -0.1755    0.0065 C   0  0  0  0  0  0  0  0  0  0  0  0
   -1.9635   -0.8901   -0.0042 O   0  0  0  0  0  0  0  0  0  0  0  0
   -0.7891   -0.1809   -0.0018 C   0  0  0  0  0  0  0  0  0  0  0  0
   -0.7005    1.2059    0.0032 C   0  0  0  0  0  0  0  0  0  0  0  0
    0.5542    1.7974    0.0008 C   0  0  0  0  0  0  0  0  0  0  0  0
    1.7051    1.0412   -0.0072 C   0  0  0  0  0  0  0  0  0  0  0  0
    1.6262   -0.3564   -0.0110 C   0  0  0  0  0  0  0  0  0  0  0  0
    0.3675   -0.9516   -0.0113 C   0  0  0  0  0  0  0  0  0  0  0  0
    2.7636   -1.1240    0.0536 N   0  0  0  0  0  0  0  0  0  0  0  0
   -3.2815    0.4521   -0.8835 H   0  0  0  0  0  0  0  0  0  0  0  0
   -3.2719    0.4414    0.9049 H   0  0  0  0  0  0  0  0  0  0  0  0
   -3.9604   -0.9358    0.0062 H   0  0  0  0  0  0  0  0  0  0  0  0
   -1.5813    1.8263    0.0078 H   0  0  0  0  0  0  0  0  0  0  0  0
    0.6243    2.8753    0.0023 H   0  0  0  0  0  0  0  0  0  0  0  0
    2.6727    1.5199   -0.0081 H   0  0  0  0  0  0  0  0  0  0  0  0
    0.2663   -2.0261   -0.0153 H   0  0  0  0  0  0  0  0  0  0  0  0
    3.6199   -0.6790   -0.2308 H   0  0  0  0  0  0  0  0  0  0  0  0
    2.6676   -2.0890   -0.2140 H   0  0  0  0  0  0  0  0  0  0  0  0
  1  2  1  0  0  0  0
  2  3  1  0  0  0  0
  3  4  4  0  0  0  0
  4  5  4  0  0  0  0
  5  6  4  0  0  0  0
  6  7  4  0  0  0  0
  3  8  4  0  0  0  0
  7  8  4  0  0  0  0
  7  9  1  0  0  0  0
  1 10  1  0  0  0  0
  1 11  1  0  0  0  0
  1 12  1  0  0  0  0
  4 13  1  0  0  0  0
  5 14  1  0  0  0  0
  6 15  1  0  0  0  0
  8 16  1  0  0  0  0
  9 17  1  0  0  0  0
  9 18  1  0  0  0  0
M  END
