 xtb: 6.7.1 (edcfbbe)
          04062505073D

 29 29  0     0  0            999 V2000
   -3.0759    0.4795    0.6266 C   0  0  0  0  0  0  0  0  0  0  0  0
   -2.2690   -0.4576   -0.2712 C   0  0  0  0  0  0  0  0  0  0  0  0
   -2.9728   -0.9934   -0.9153 H   0  0  0  0  0  0  0  0  0  0  0  0
   -1.4659   -1.4736    0.5671 C   0  0  0  0  0  0  0  0  0  0  0  0
    0.0323   -1.4306    0.2724 C   0  0  0  0  0  0  0  0  0  0  0  0
    0.5571   -0.0094    0.4528 C   0  0  0  0  0  0  0  0  0  0  0  0
    0.3392    0.3101    1.4811 H   0  0  0  0  0  0  0  0  0  0  0  0
   -0.1952    0.9593   -0.4320 C   0  0  0  0  0  0  0  0  0  0  0  0
    0.1139    2.1336   -0.5239 O   0  0  0  0  0  0  0  0  0  0  0  0
   -1.3506    0.3675   -1.1857 C   0  0  0  0  0  0  0  0  0  0  0  0
    2.0788    0.1706    0.2518 C   0  0  0  0  0  0  0  0  0  0  0  0
    2.8801   -0.5357    1.3421 C   0  0  0  0  0  0  0  0  0  0  0  0
    2.5315   -0.2942   -1.1310 C   0  0  0  0  0  0  0  0  0  0  0  0
   -2.4122    1.0826    1.2439 H   0  0  0  0  0  0  0  0  0  0  0  0
   -3.6853    1.1535    0.0287 H   0  0  0  0  0  0  0  0  0  0  0  0
   -3.7348   -0.0908    1.2767 H   0  0  0  0  0  0  0  0  0  0  0  0
   -1.6148   -1.2589    1.6268 H   0  0  0  0  0  0  0  0  0  0  0  0
   -1.8361   -2.4829    0.3856 H   0  0  0  0  0  0  0  0  0  0  0  0
    0.5486   -2.1018    0.9585 H   0  0  0  0  0  0  0  0  0  0  0  0
    0.2215   -1.7785   -0.7425 H   0  0  0  0  0  0  0  0  0  0  0  0
   -1.9110    1.1668   -1.6734 H   0  0  0  0  0  0  0  0  0  0  0  0
   -0.9319   -0.2767   -1.9619 H   0  0  0  0  0  0  0  0  0  0  0  0
    2.2670    1.2487    0.3246 H   0  0  0  0  0  0  0  0  0  0  0  0
    2.7667   -1.6140    1.2690 H   0  0  0  0  0  0  0  0  0  0  0  0
    2.5564   -0.2158    2.3294 H   0  0  0  0  0  0  0  0  0  0  0  0
    3.9356   -0.2987    1.2352 H   0  0  0  0  0  0  0  0  0  0  0  0
    2.4227   -1.3702   -1.2369 H   0  0  0  0  0  0  0  0  0  0  0  0
    3.5795   -0.0442   -1.2778 H   0  0  0  0  0  0  0  0  0  0  0  0
    1.9534    0.2008   -1.9091 H   0  0  0  0  0  0  0  0  0  0  0  0
  1  2  1  0  0  0  0
  2  3  1  0  0  0  0
  2  4  1  0  0  0  0
  4  5  1  0  0  0  0
  5  6  1  0  0  0  0
  6  7  1  0  0  0  0
  6  8  1  0  0  0  0
  8  9  2  0  0  0  0
  2 10  1  0  0  0  0
  8 10  1  0  0  0  0
  6 11  1  0  0  0  0
 11 12  1  0  0  0  0
 11 13  1  0  0  0  0
  1 14  1  0  0  0  0
  1 15  1  0  0  0  0
  1 16  1  0  0  0  0
  4 17  1  0  0  0  0
  4 18  1  0  0  0  0
  5 19  1  0  0  0  0
  5 20  1  0  0  0  0
 10 21  1  0  0  0  0
 10 22  1  0  0  0  0
 11 23  1  0  0  0  0
 12 24  1  0  0  0  0
 12 25  1  0  0  0  0
 12 26  1  0  0  0  0
 13 27  1  0  0  0  0
 13 28  1  0  0  0  0
 13 29  1  0  0  0  0
M  END
