 xtb: 6.7.1 (edcfbbe)
          04062518003D

 24 24  0     0  0            999 V2000
   -2.1881   -0.9168   -0.2028 C   0  0  0  0  0  0  0  0  0  0  0  0
   -1.1521   -0.3523    0.7834 C   0  0  0  0  0  0  0  0  0  0  0  0
   -1.6478   -0.3537    1.7632 H   0  0  0  0  0  0  0  0  0  0  0  0
   -0.7429    1.1099    0.5124 C   0  0  0  0  0  0  0  0  0  0  0  0
   -1.6017    1.6380    0.0842 H   0  0  0  0  0  0  0  0  0  0  0  0
    0.4538    1.2641   -0.4498 C   0  0  0  0  0  0  0  0  0  0  0  0
    0.8160    2.2952   -0.3354 H   0  0  0  0  0  0  0  0  0  0  0  0
    1.5884    0.3068   -0.0289 C   0  0  0  0  0  0  0  0  0  0  0  0
    2.3298    0.2713   -0.8370 H   0  0  0  0  0  0  0  0  0  0  0  0
    1.0735   -1.1292    0.1498 C   0  0  0  0  0  0  0  0  0  0  0  0
    1.8437   -1.6935    0.7024 H   0  0  0  0  0  0  0  0  0  0  0  0
   -0.0450   -1.2289    0.9906 O   0  0  0  0  0  0  0  0  0  0  0  0
    0.8669   -1.6672   -1.1153 O   0  0  0  0  0  0  0  0  0  0  0  0
    2.1647    0.7003    1.1966 O   0  0  0  0  0  0  0  0  0  0  0  0
    0.1231    1.1377   -1.8015 O   0  0  0  0  0  0  0  0  0  0  0  0
   -0.4632    1.7646    1.7301 O   0  0  0  0  0  0  0  0  0  0  0  0
   -1.7410   -0.8710   -1.5387 O   0  0  0  0  0  0  0  0  0  0  0  0
   -3.1024   -0.3236   -0.0819 H   0  0  0  0  0  0  0  0  0  0  0  0
   -2.3906   -1.9532    0.0956 H   0  0  0  0  0  0  0  0  0  0  0  0
    0.5973   -2.5946   -1.0415 H   0  0  0  0  0  0  0  0  0  0  0  0
    2.7553    1.4532    1.0502 H   0  0  0  0  0  0  0  0  0  0  0  0
   -0.3335    0.2852   -1.9394 H   0  0  0  0  0  0  0  0  0  0  0  0
    0.3456    1.3761    2.1054 H   0  0  0  0  0  0  0  0  0  0  0  0
   -2.4541   -1.1563   -2.1266 H   0  0  0  0  0  0  0  0  0  0  0  0
  1  2  1  0  0  0  0
  2  3  1  0  0  0  0
  2  4  1  0  0  0  0
  4  5  1  0  0  0  0
  4  6  1  0  0  0  0
  6  7  1  0  0  0  0
  6  8  1  0  0  0  0
  8  9  1  0  0  0  0
  8 10  1  0  0  0  0
 10 11  1  0  0  0  0
  2 12  1  0  0  0  0
 10 12  1  0  0  0  0
 10 13  1  0  0  0  0
  8 14  1  0  0  0  0
  6 15  1  0  0  0  0
  4 16  1  0  0  0  0
  1 17  1  0  0  0  0
  1 18  1  0  0  0  0
  1 19  1  0  0  0  0
 13 20  1  0  0  0  0
 14 21  1  0  0  0  0
 15 22  1  0  0  0  0
 16 23  1  0  0  0  0
 17 24  1  0  0  0  0
M  END
