 xtb: 6.7.1 (edcfbbe)
          04042520023D

 16 16  0     0  0            999 V2000
   -2.4848   -1.0724   -0.5077 C   0  0  0  0  0  0  0  0  0  0  0  0
   -1.7149    0.0878    0.0446 C   0  0  0  0  0  0  0  0  0  0  0  0
   -2.2637    1.0890    0.4706 O   0  0  0  0  0  0  0  0  0  0  0  0
   -0.2271    0.0021    0.0174 C   0  0  0  0  0  0  0  0  0  0  0  0
    0.5079    1.1590   -0.2377 C   0  0  0  0  0  0  0  0  0  0  0  0
    1.8906    1.0775   -0.2591 C   0  0  0  0  0  0  0  0  0  0  0  0
    2.5560   -0.0430   -0.0271 N   0  0  0  0  0  0  0  0  0  0  0  0
    1.8583   -1.1358    0.2392 C   0  0  0  0  0  0  0  0  0  0  0  0
    0.4728   -1.1758    0.2684 C   0  0  0  0  0  0  0  0  0  0  0  0
   -2.9388   -0.7487   -1.4437 H   0  0  0  0  0  0  0  0  0  0  0  0
   -3.2978   -1.3245    0.1694 H   0  0  0  0  0  0  0  0  0  0  0  0
   -1.8588   -1.9354   -0.6989 H   0  0  0  0  0  0  0  0  0  0  0  0
   -0.0045    2.0907   -0.4190 H   0  0  0  0  0  0  0  0  0  0  0  0
    2.4978    1.9481   -0.4645 H   0  0  0  0  0  0  0  0  0  0  0  0
    2.4438   -2.0233    0.4348 H   0  0  0  0  0  0  0  0  0  0  0  0
   -0.0359   -2.0938    0.5124 H   0  0  0  0  0  0  0  0  0  0  0  0
  1  2  1  0  0  0  0
  2  3  2  0  0  0  0
  2  4  1  0  0  0  0
  4  5  4  0  0  0  0
  5  6  4  0  0  0  0
  6  7  4  0  0  0  0
  7  8  4  0  0  0  0
  4  9  4  0  0  0  0
  8  9  4  0  0  0  0
  1 10  1  0  0  0  0
  1 11  1  0  0  0  0
  1 12  1  0  0  0  0
  5 13  1  0  0  0  0
  6 14  1  0  0  0  0
  8 15  1  0  0  0  0
  9 16  1  0  0  0  0
M  END
