 xtb: 6.7.1 (edcfbbe)
          04042521533D

 17 16  0     0  0            999 V2000
   -2.0810    0.0098    0.1314 C   0  0  0  0  0  0  0  0  0  0  0  0
   -0.7652    0.6383   -0.3146 C   0  0  0  0  0  0  0  0  0  0  0  0
    0.4703    0.0009    0.3316 C   0  0  0  0  0  0  0  0  0  0  0  0
    0.6726   -1.4400   -0.1322 C   0  0  0  0  0  0  0  0  0  0  0  0
    1.7130    0.8294    0.0074 C   0  0  0  0  0  0  0  0  0  0  0  0
   -2.9200    0.5592   -0.2890 H   0  0  0  0  0  0  0  0  0  0  0  0
   -2.1649    0.0330    1.2159 H   0  0  0  0  0  0  0  0  0  0  0  0
   -2.1549   -1.0230   -0.1982 H   0  0  0  0  0  0  0  0  0  0  0  0
   -0.6774    0.5646   -1.4011 H   0  0  0  0  0  0  0  0  0  0  0  0
   -0.7811    1.7001   -0.0569 H   0  0  0  0  0  0  0  0  0  0  0  0
    0.3284    0.0003    1.4187 H   0  0  0  0  0  0  0  0  0  0  0  0
    1.5772   -1.8536    0.3078 H   0  0  0  0  0  0  0  0  0  0  0  0
    0.7700   -1.4774   -1.2153 H   0  0  0  0  0  0  0  0  0  0  0  0
   -0.1635   -2.0679    0.1625 H   0  0  0  0  0  0  0  0  0  0  0  0
    1.5992    1.8507    0.3637 H   0  0  0  0  0  0  0  0  0  0  0  0
    1.8775    0.8573   -1.0677 H   0  0  0  0  0  0  0  0  0  0  0  0
    2.5935    0.3983    0.4781 H   0  0  0  0  0  0  0  0  0  0  0  0
  1  2  1  0  0  0  0
  2  3  1  0  0  0  0
  3  4  1  0  0  0  0
  3  5  1  0  0  0  0
  1  6  1  0  0  0  0
  1  7  1  0  0  0  0
  1  8  1  0  0  0  0
  2  9  1  0  0  0  0
  2 10  1  0  0  0  0
  3 11  1  0  0  0  0
  4 12  1  0  0  0  0
  4 13  1  0  0  0  0
  4 14  1  0  0  0  0
  5 15  1  0  0  0  0
  5 16  1  0  0  0  0
  5 17  1  0  0  0  0
M  END
