 xtb: 6.7.1 (edcfbbe)
          04062518003D

 24 24  0     0  0            999 V2000
   -2.5164   -0.9937    0.3609 C   0  0  0  0  0  0  0  0  0  0  0  0
   -1.0670   -0.5234    0.5924 C   0  0  0  0  0  0  0  0  0  0  0  0
   -0.8905   -0.4690    1.6798 H   0  0  0  0  0  0  0  0  0  0  0  0
   -0.7979    0.8607   -0.0346 C   0  0  0  0  0  0  0  0  0  0  0  0
   -0.9350    0.7849   -1.1193 H   0  0  0  0  0  0  0  0  0  0  0  0
    0.6591    1.2524    0.2320 C   0  0  0  0  0  0  0  0  0  0  0  0
    0.8203    1.3487    1.3205 H   0  0  0  0  0  0  0  0  0  0  0  0
    1.5874    0.1458   -0.2833 C   0  0  0  0  0  0  0  0  0  0  0  0
    1.4996    0.0838   -1.3780 H   0  0  0  0  0  0  0  0  0  0  0  0
    1.1651   -1.2142    0.2974 C   0  0  0  0  0  0  0  0  0  0  0  0
    1.3320   -1.1937    1.3980 H   0  0  0  0  0  0  0  0  0  0  0  0
   -0.1891   -1.4876    0.0412 O   0  0  0  0  0  0  0  0  0  0  0  0
    1.9351   -2.1933   -0.3001 O   0  0  0  0  0  0  0  0  0  0  0  0
    2.8977    0.4791    0.0977 O   0  0  0  0  0  0  0  0  0  0  0  0
    0.9256    2.4774   -0.3991 O   0  0  0  0  0  0  0  0  0  0  0  0
   -1.7229    1.8144    0.4136 O   0  0  0  0  0  0  0  0  0  0  0  0
   -3.0185   -0.7189   -0.9185 O   0  0  0  0  0  0  0  0  0  0  0  0
   -3.1518   -0.5418    1.1296 H   0  0  0  0  0  0  0  0  0  0  0  0
   -2.5344   -2.0801    0.4665 H   0  0  0  0  0  0  0  0  0  0  0  0
    1.5070   -3.0561   -0.1874 H   0  0  0  0  0  0  0  0  0  0  0  0
    3.5004   -0.2185   -0.1988 H   0  0  0  0  0  0  0  0  0  0  0  0
    1.8775    2.6507   -0.3414 H   0  0  0  0  0  0  0  0  0  0  0  0
   -1.4323    2.1968    1.2533 H   0  0  0  0  0  0  0  0  0  0  0  0
   -3.1782    0.2330   -0.9948 H   0  0  0  0  0  0  0  0  0  0  0  0
  1  2  1  0  0  0  0
  2  3  1  0  0  0  0
  2  4  1  0  0  0  0
  4  5  1  0  0  0  0
  4  6  1  0  0  0  0
  6  7  1  0  0  0  0
  6  8  1  0  0  0  0
  8  9  1  0  0  0  0
  8 10  1  0  0  0  0
 10 11  1  0  0  0  0
  2 12  1  0  0  0  0
 10 12  1  0  0  0  0
 10 13  1  0  0  0  0
  8 14  1  0  0  0  0
  6 15  1  0  0  0  0
  4 16  1  0  0  0  0
  1 17  1  0  0  0  0
  1 18  1  0  0  0  0
  1 19  1  0  0  0  0
 13 20  1  0  0  0  0
 14 21  1  0  0  0  0
 15 22  1  0  0  0  0
 16 23  1  0  0  0  0
 17 24  1  0  0  0  0
M  END
