 xtb: 6.7.1 (edcfbbe)
          04052503223D

 20 19  0     0  0            999 V2000
   -1.7362   -0.3981   -0.9813 C   0  0  0  0  0  0  0  0  0  0  0  0
   -0.6732    0.3888   -0.2128 C   0  0  0  0  0  0  0  0  0  0  0  0
   -1.2146    0.7465    1.1710 C   0  0  0  0  0  0  0  0  0  0  0  0
    0.6731   -0.3886   -0.2127 C   0  0  0  0  0  0  0  0  0  0  0  0
    1.7363    0.3980   -0.9813 C   0  0  0  0  0  0  0  0  0  0  0  0
    1.2146   -0.7464    1.1710 C   0  0  0  0  0  0  0  0  0  0  0  0
   -1.9431   -1.3425   -0.4818 H   0  0  0  0  0  0  0  0  0  0  0  0
   -2.6633    0.1680   -1.0396 H   0  0  0  0  0  0  0  0  0  0  0  0
   -1.4011   -0.6090   -1.9944 H   0  0  0  0  0  0  0  0  0  0  0  0
   -0.5110    1.3328   -0.7450 H   0  0  0  0  0  0  0  0  0  0  0  0
   -1.4604   -0.1457    1.7406 H   0  0  0  0  0  0  0  0  0  0  0  0
   -0.4990    1.3375    1.7350 H   0  0  0  0  0  0  0  0  0  0  0  0
   -2.1230    1.3352    1.0600 H   0  0  0  0  0  0  0  0  0  0  0  0
    0.5108   -1.3326   -0.7449 H   0  0  0  0  0  0  0  0  0  0  0  0
    1.9438    1.3420   -0.4816 H   0  0  0  0  0  0  0  0  0  0  0  0
    2.6631   -0.1686   -1.0404 H   0  0  0  0  0  0  0  0  0  0  0  0
    1.4008    0.6094   -1.9942 H   0  0  0  0  0  0  0  0  0  0  0  0
    0.4985   -1.3368    1.7354 H   0  0  0  0  0  0  0  0  0  0  0  0
    1.4609    0.1458    1.7405 H   0  0  0  0  0  0  0  0  0  0  0  0
    2.1226   -1.3358    1.0601 H   0  0  0  0  0  0  0  0  0  0  0  0
  1  2  1  0  0  0  0
  2  3  1  0  0  0  0
  2  4  1  0  0  0  0
  4  5  1  0  0  0  0
  4  6  1  0  0  0  0
  1  7  1  0  0  0  0
  1  8  1  0  0  0  0
  1  9  1  0  0  0  0
  2 10  1  0  0  0  0
  3 11  1  0  0  0  0
  3 12  1  0  0  0  0
  3 13  1  0  0  0  0
  4 14  1  0  0  0  0
  5 15  1  0  0  0  0
  5 16  1  0  0  0  0
  5 17  1  0  0  0  0
  6 18  1  0  0  0  0
  6 19  1  0  0  0  0
  6 20  1  0  0  0  0
M  END
