 xtb: 6.7.1 (edcfbbe)
          04062518003D

 24 24  0     0  0            999 V2000
   -1.9719   -1.2430   -0.3573 C   0  0  0  0  0  0  0  0  0  0  0  0
   -1.2813   -0.3960    0.7241 C   0  0  0  0  0  0  0  0  0  0  0  0
   -1.9622   -0.3103    1.5771 H   0  0  0  0  0  0  0  0  0  0  0  0
   -0.9765    1.0309    0.2287 C   0  0  0  0  0  0  0  0  0  0  0  0
   -1.3392    1.1365   -0.8045 H   0  0  0  0  0  0  0  0  0  0  0  0
    0.5413    1.2771    0.2322 C   0  0  0  0  0  0  0  0  0  0  0  0
    0.8727    1.3793    1.2739 H   0  0  0  0  0  0  0  0  0  0  0  0
    1.2377    0.0721   -0.4137 C   0  0  0  0  0  0  0  0  0  0  0  0
    0.7864   -0.1445   -1.3881 H   0  0  0  0  0  0  0  0  0  0  0  0
    1.0106   -1.1543    0.4912 C   0  0  0  0  0  0  0  0  0  0  0  0
    1.8331   -1.2174    1.2229 H   0  0  0  0  0  0  0  0  0  0  0  0
   -0.1408   -1.0258    1.2953 O   0  0  0  0  0  0  0  0  0  0  0  0
    0.9756   -2.2936   -0.3033 O   0  0  0  0  0  0  0  0  0  0  0  0
    2.5957    0.3023   -0.6678 O   0  0  0  0  0  0  0  0  0  0  0  0
    0.8672    2.4939   -0.3890 O   0  0  0  0  0  0  0  0  0  0  0  0
   -1.6472    1.9440    1.0651 O   0  0  0  0  0  0  0  0  0  0  0  0
   -1.3811   -1.0297   -1.6208 O   0  0  0  0  0  0  0  0  0  0  0  0
   -3.0286   -0.9470   -0.3853 H   0  0  0  0  0  0  0  0  0  0  0  0
   -1.8983   -2.2942   -0.0612 H   0  0  0  0  0  0  0  0  0  0  0  0
    0.9784   -3.0890    0.2511 H   0  0  0  0  0  0  0  0  0  0  0  0
    3.0336    0.6322    0.1310 H   0  0  0  0  0  0  0  0  0  0  0  0
    0.8319    2.3883   -1.3509 H   0  0  0  0  0  0  0  0  0  0  0  0
   -1.3404    2.8392    0.8528 H   0  0  0  0  0  0  0  0  0  0  0  0
   -1.7559   -1.6578   -2.2538 H   0  0  0  0  0  0  0  0  0  0  0  0
  1  2  1  0  0  0  0
  2  3  1  0  0  0  0
  2  4  1  0  0  0  0
  4  5  1  0  0  0  0
  4  6  1  0  0  0  0
  6  7  1  0  0  0  0
  6  8  1  0  0  0  0
  8  9  1  0  0  0  0
  8 10  1  0  0  0  0
 10 11  1  0  0  0  0
  2 12  1  0  0  0  0
 10 12  1  0  0  0  0
 10 13  1  0  0  0  0
  8 14  1  0  0  0  0
  6 15  1  0  0  0  0
  4 16  1  0  0  0  0
  1 17  1  0  0  0  0
  1 18  1  0  0  0  0
  1 19  1  0  0  0  0
 13 20  1  0  0  0  0
 14 21  1  0  0  0  0
 15 22  1  0  0  0  0
 16 23  1  0  0  0  0
 17 24  1  0  0  0  0
M  END
