 xtb: 6.7.1 (edcfbbe)
          04062520053D

 27 27  0     0  0            999 V2000
   -2.6901    0.4262    1.2344 C   0  0  0  0  0  0  0  0  0  0  0  0
   -1.4623    0.4245    0.3723 C   0  0  0  0  0  0  0  0  0  0  0  0
   -0.8870    1.5430   -0.0488 C   0  0  0  0  0  0  0  0  0  0  0  0
    0.3328    1.6165   -0.9136 C   0  0  0  0  0  0  0  0  0  0  0  0
    1.0790    0.2839   -1.0127 C   0  0  0  0  0  0  0  0  0  0  0  0
    1.6959    0.2993   -1.9183 H   0  0  0  0  0  0  0  0  0  0  0  0
    0.0432   -0.8339   -1.1834 C   0  0  0  0  0  0  0  0  0  0  0  0
   -0.8759   -0.9310    0.0325 C   0  0  0  0  0  0  0  0  0  0  0  0
   -0.2851   -1.2841    0.8975 H   0  0  0  0  0  0  0  0  0  0  0  0
   -1.8653   -1.9026   -0.2736 O   0  0  0  0  0  0  0  0  0  0  0  0
    2.0020   -0.0222    0.1518 C   0  0  0  0  0  0  0  0  0  0  0  0
    2.9069   -0.9838    0.0362 C   0  0  0  0  0  0  0  0  0  0  0  0
    1.8836    0.7782    1.4130 C   0  0  0  0  0  0  0  0  0  0  0  0
   -2.9576    1.4422    1.5114 H   0  0  0  0  0  0  0  0  0  0  0  0
   -2.5192   -0.1503    2.1435 H   0  0  0  0  0  0  0  0  0  0  0  0
   -3.5290   -0.0155    0.6977 H   0  0  0  0  0  0  0  0  0  0  0  0
   -1.3202    2.4981    0.2202 H   0  0  0  0  0  0  0  0  0  0  0  0
    0.0142    1.9143   -1.9185 H   0  0  0  0  0  0  0  0  0  0  0  0
    0.9955    2.4035   -0.5499 H   0  0  0  0  0  0  0  0  0  0  0  0
   -0.5802   -0.6324   -2.0566 H   0  0  0  0  0  0  0  0  0  0  0  0
    0.5320   -1.7973   -1.3317 H   0  0  0  0  0  0  0  0  0  0  0  0
   -2.3995   -2.0702    0.5136 H   0  0  0  0  0  0  0  0  0  0  0  0
    3.5686   -1.2446    0.8446 H   0  0  0  0  0  0  0  0  0  0  0  0
    3.0235   -1.5517   -0.8718 H   0  0  0  0  0  0  0  0  0  0  0  0
    2.4373    0.2997    2.2166 H   0  0  0  0  0  0  0  0  0  0  0  0
    2.2983    1.7745    1.2637 H   0  0  0  0  0  0  0  0  0  0  0  0
    0.8442    0.8915    1.7097 H   0  0  0  0  0  0  0  0  0  0  0  0
  1  2  1  0  0  0  0
  2  3  2  0  0  0  0
  3  4  1  0  0  0  0
  4  5  1  0  0  0  0
  5  6  1  0  0  0  0
  5  7  1  0  0  0  0
  2  8  1  0  0  0  0
  7  8  1  0  0  0  0
  8  9  1  0  0  0  0
  8 10  1  0  0  0  0
  5 11  1  0  0  0  0
 11 12  2  0  0  0  0
 11 13  1  0  0  0  0
  1 14  1  0  0  0  0
  1 15  1  0  0  0  0
  1 16  1  0  0  0  0
  3 17  1  0  0  0  0
  4 18  1  0  0  0  0
  4 19  1  0  0  0  0
  7 20  1  0  0  0  0
  7 21  1  0  0  0  0
 10 22  1  0  0  0  0
 12 23  1  0  0  0  0
 12 24  1  0  0  0  0
 13 25  1  0  0  0  0
 13 26  1  0  0  0  0
 13 27  1  0  0  0  0
M  END
