 xtb: 6.7.1 (edcfbbe)
          04062518003D

 24 24  0     0  0            999 V2000
   -2.5750   -0.6940   -0.2712 C   0  0  0  0  0  0  0  0  0  0  0  0
   -1.1854   -0.2856    0.2356 C   0  0  0  0  0  0  0  0  0  0  0  0
   -1.2049   -0.2053    1.3341 H   0  0  0  0  0  0  0  0  0  0  0  0
   -0.7159    1.0554   -0.3549 C   0  0  0  0  0  0  0  0  0  0  0  0
   -0.6825    0.9688   -1.4497 H   0  0  0  0  0  0  0  0  0  0  0  0
    0.7033    1.3411    0.1527 C   0  0  0  0  0  0  0  0  0  0  0  0
    0.6568    1.4754    1.2454 H   0  0  0  0  0  0  0  0  0  0  0  0
    1.6438    0.1716   -0.1558 C   0  0  0  0  0  0  0  0  0  0  0  0
    1.7980    0.1107   -1.2429 H   0  0  0  0  0  0  0  0  0  0  0  0
    1.0311   -1.1571    0.3084 C   0  0  0  0  0  0  0  0  0  0  0  0
    1.0403   -1.1643    1.4176 H   0  0  0  0  0  0  0  0  0  0  0  0
   -0.2942   -1.3196   -0.1498 O   0  0  0  0  0  0  0  0  0  0  0  0
    1.7866   -2.1803   -0.2170 O   0  0  0  0  0  0  0  0  0  0  0  0
    2.8664    0.3224    0.5138 O   0  0  0  0  0  0  0  0  0  0  0  0
    1.2484    2.4878   -0.4510 O   0  0  0  0  0  0  0  0  0  0  0  0
   -1.5112    2.1434    0.0481 O   0  0  0  0  0  0  0  0  0  0  0  0
   -3.0428   -1.8646    0.3436 O   0  0  0  0  0  0  0  0  0  0  0  0
   -2.5273   -0.8198   -1.3602 H   0  0  0  0  0  0  0  0  0  0  0  0
   -3.2987    0.0811   -0.0163 H   0  0  0  0  0  0  0  0  0  0  0  0
    1.4386   -3.0400    0.0675 H   0  0  0  0  0  0  0  0  0  0  0  0
    3.2640    1.1610    0.2322 H   0  0  0  0  0  0  0  0  0  0  0  0
    0.6374    3.2269   -0.3100 H   0  0  0  0  0  0  0  0  0  0  0  0
   -2.3373    2.1660   -0.4530 H   0  0  0  0  0  0  0  0  0  0  0  0
   -2.4164   -2.5792    0.1611 H   0  0  0  0  0  0  0  0  0  0  0  0
  1  2  1  0  0  0  0
  2  3  1  0  0  0  0
  2  4  1  0  0  0  0
  4  5  1  0  0  0  0
  4  6  1  0  0  0  0
  6  7  1  0  0  0  0
  6  8  1  0  0  0  0
  8  9  1  0  0  0  0
  8 10  1  0  0  0  0
 10 11  1  0  0  0  0
  2 12  1  0  0  0  0
 10 12  1  0  0  0  0
 10 13  1  0  0  0  0
  8 14  1  0  0  0  0
  6 15  1  0  0  0  0
  4 16  1  0  0  0  0
  1 17  1  0  0  0  0
  1 18  1  0  0  0  0
  1 19  1  0  0  0  0
 13 20  1  0  0  0  0
 14 21  1  0  0  0  0
 15 22  1  0  0  0  0
 16 23  1  0  0  0  0
 17 24  1  0  0  0  0
M  END
