 xtb: 6.7.1 (edcfbbe)
          04042519183D

 15 15  0     0  0            999 V2000
    2.0694   -1.0295    0.0002 C   0  0  0  0  0  0  0  0  0  0  0  0
    2.3305    0.3408   -0.0000 C   0  0  0  0  0  0  0  0  0  0  0  0
    1.3012    1.2555    0.0000 C   0  0  0  0  0  0  0  0  0  0  0  0
   -0.0284    0.8244   -0.0001 C   0  0  0  0  0  0  0  0  0  0  0  0
   -0.3003   -0.5637   -0.0003 C   0  0  0  0  0  0  0  0  0  0  0  0
    0.7699   -1.4728   -0.0002 C   0  0  0  0  0  0  0  0  0  0  0  0
   -1.6567   -1.0460   -0.0001 C   0  0  0  0  0  0  0  0  0  0  0  0
   -2.6622   -0.3425    0.0002 O   0  0  0  0  0  0  0  0  0  0  0  0
   -0.9971    1.7444    0.0001 O   0  0  0  0  0  0  0  0  0  0  0  0
    2.8854   -1.7334    0.0010 H   0  0  0  0  0  0  0  0  0  0  0  0
    3.3509    0.6906   -0.0005 H   0  0  0  0  0  0  0  0  0  0  0  0
    1.4888    2.3172    0.0001 H   0  0  0  0  0  0  0  0  0  0  0  0
    0.5470   -2.5289    0.0015 H   0  0  0  0  0  0  0  0  0  0  0  0
   -1.7629   -2.1433   -0.0003 H   0  0  0  0  0  0  0  0  0  0  0  0
   -1.8767    1.3010   -0.0008 H   0  0  0  0  0  0  0  0  0  0  0  0
  1  2  4  0  0  0  0
  2  3  4  0  0  0  0
  3  4  4  0  0  0  0
  4  5  4  0  0  0  0
  1  6  2  0  0  0  0
  5  6  4  0  0  0  0
  5  7  1  0  0  0  0
  7  8  2  0  0  0  0
  4  9  1  0  0  0  0
  1 10  1  0  0  0  0
  2 11  1  0  0  0  0
  3 12  1  0  0  0  0
  6 13  1  0  0  0  0
  7 14  1  0  0  0  0
  9 15  1  0  0  0  0
M  END
