 xtb: 6.7.1 (edcfbbe)
          04042520063D

 15 15  0     0  0            999 V2000
   -0.4110   -1.0472    0.0001 C   0  0  0  0  0  0  0  0  0  0  0  0
    0.9534   -1.1988    0.0000 C   0  0  0  0  0  0  0  0  0  0  0  0
    1.7837   -0.0719   -0.0000 C   0  0  0  0  0  0  0  0  0  0  0  0
    1.2158    1.2049   -0.0000 C   0  0  0  0  0  0  0  0  0  0  0  0
   -0.1526    1.3520    0.0000 C   0  0  0  0  0  0  0  0  0  0  0  0
   -0.9880    0.2304   -0.0000 C   0  0  0  0  0  0  0  0  0  0  0  0
   -2.4280    0.3861    0.0000 C   0  0  0  0  0  0  0  0  0  0  0  0
   -3.2445   -0.5184   -0.0000 O   0  0  0  0  0  0  0  0  0  0  0  0
    3.1112   -0.2713   -0.0000 O   0  0  0  0  0  0  0  0  0  0  0  0
   -1.0668   -1.9047    0.0001 H   0  0  0  0  0  0  0  0  0  0  0  0
    1.4118   -2.1745   -0.0002 H   0  0  0  0  0  0  0  0  0  0  0  0
    1.8530    2.0766   -0.0003 H   0  0  0  0  0  0  0  0  0  0  0  0
   -0.5905    2.3386    0.0001 H   0  0  0  0  0  0  0  0  0  0  0  0
   -2.7756    1.4367   -0.0002 H   0  0  0  0  0  0  0  0  0  0  0  0
    3.6016    0.5671    0.0001 H   0  0  0  0  0  0  0  0  0  0  0  0
  1  2  2  0  0  0  0
  2  3  4  0  0  0  0
  3  4  4  0  0  0  0
  4  5  4  0  0  0  0
  1  6  4  0  0  0  0
  5  6  4  0  0  0  0
  6  7  1  0  0  0  0
  7  8  2  0  0  0  0
  3  9  1  0  0  0  0
  1 10  1  0  0  0  0
  2 11  1  0  0  0  0
  4 12  1  0  0  0  0
  5 13  1  0  0  0  0
  7 14  1  0  0  0  0
  9 15  1  0  0  0  0
M  END
