 xtb: 6.7.1 (edcfbbe)
          04032521303D

 19 19  0     0  0            999 V2000
   -1.8880   -0.0126    0.3152 C   0  0  0  0  0  0  0  0  0  0  0  0
   -1.1818   -1.2601   -0.2078 C   0  0  0  0  0  0  0  0  0  0  0  0
    0.2910   -1.2464    0.1869 C   0  0  0  0  0  0  0  0  0  0  0  0
    0.9825    0.0107   -0.3391 C   0  0  0  0  0  0  0  0  0  0  0  0
    0.2714    1.2595    0.1882 C   0  0  0  0  0  0  0  0  0  0  0  0
   -1.2016    1.2447   -0.2102 C   0  0  0  0  0  0  0  0  0  0  0  0
    2.3394   -0.0431    0.0711 O   0  0  0  0  0  0  0  0  0  0  0  0
   -1.8589   -0.0117    1.4067 H   0  0  0  0  0  0  0  0  0  0  0  0
   -2.9344   -0.0208    0.0056 H   0  0  0  0  0  0  0  0  0  0  0  0
   -1.6576   -2.1561    0.1934 H   0  0  0  0  0  0  0  0  0  0  0  0
   -1.2633   -1.2942   -1.2966 H   0  0  0  0  0  0  0  0  0  0  0  0
    0.3923   -1.2609    1.2738 H   0  0  0  0  0  0  0  0  0  0  0  0
    0.8066   -2.1239   -0.2067 H   0  0  0  0  0  0  0  0  0  0  0  0
    0.9366    0.0077   -1.4415 H   0  0  0  0  0  0  0  0  0  0  0  0
    0.3631    1.2759    1.2765 H   0  0  0  0  0  0  0  0  0  0  0  0
    0.7551    2.1560   -0.2070 H   0  0  0  0  0  0  0  0  0  0  0  0
   -1.6961    2.1337    0.1846 H   0  0  0  0  0  0  0  0  0  0  0  0
   -1.2800    1.2713   -1.2995 H   0  0  0  0  0  0  0  0  0  0  0  0
    2.7937    0.7578   -0.2229 H   0  0  0  0  0  0  0  0  0  0  0  0
  1  2  1  0  0  0  0
  2  3  1  0  0  0  0
  3  4  1  0  0  0  0
  4  5  1  0  0  0  0
  1  6  1  0  0  0  0
  5  6  1  0  0  0  0
  4  7  1  0  0  0  0
  1  8  1  0  0  0  0
  1  9  1  0  0  0  0
  2 10  1  0  0  0  0
  2 11  1  0  0  0  0
  3 12  1  0  0  0  0
  3 13  1  0  0  0  0
  4 14  1  0  0  0  0
  5 15  1  0  0  0  0
  5 16  1  0  0  0  0
  6 17  1  0  0  0  0
  6 18  1  0  0  0  0
  7 19  1  0  0  0  0
M  END
