 xtb: 6.7.1 (edcfbbe)
          04032521463D

 19 19  0     0  0            999 V2000
    2.2946   -0.3694   -0.3886 C   0  0  0  0  0  0  0  0  0  0  0  0
    1.0627   -0.2422    0.5084 C   0  0  0  0  0  0  0  0  0  0  0  0
    1.3083   -0.6245    1.5076 H   0  0  0  0  0  0  0  0  0  0  0  0
    0.5202    1.1914    0.5602 C   0  0  0  0  0  0  0  0  0  0  0  0
   -0.5196    1.1911   -0.5585 C   0  0  0  0  0  0  0  0  0  0  0  0
   -1.0608   -0.2432   -0.5080 C   0  0  0  0  0  0  0  0  0  0  0  0
   -1.3012   -0.6263   -1.5082 H   0  0  0  0  0  0  0  0  0  0  0  0
   -0.0002   -1.0529    0.0036 O   0  0  0  0  0  0  0  0  0  0  0  0
   -2.2968   -0.3705    0.3831 C   0  0  0  0  0  0  0  0  0  0  0  0
    3.1331    0.1582    0.0564 H   0  0  0  0  0  0  0  0  0  0  0  0
    2.5535   -1.4187   -0.5019 H   0  0  0  0  0  0  0  0  0  0  0  0
    2.0899    0.0439   -1.3727 H   0  0  0  0  0  0  0  0  0  0  0  0
    0.0440    1.3807    1.5220 H   0  0  0  0  0  0  0  0  0  0  0  0
    1.3069    1.9249    0.4056 H   0  0  0  0  0  0  0  0  0  0  0  0
   -1.3072    1.9235   -0.4033 H   0  0  0  0  0  0  0  0  0  0  0  0
   -0.0438    1.3819   -1.5202 H   0  0  0  0  0  0  0  0  0  0  0  0
   -2.0971    0.0444    1.3677 H   0  0  0  0  0  0  0  0  0  0  0  0
   -2.5547   -1.4200    0.4966 H   0  0  0  0  0  0  0  0  0  0  0  0
   -3.1340    0.1553   -0.0666 H   0  0  0  0  0  0  0  0  0  0  0  0
  1  2  1  0  0  0  0
  2  3  1  0  0  0  0
  2  4  1  0  0  0  0
  4  5  1  0  0  0  0
  5  6  1  0  0  0  0
  6  7  1  0  0  0  0
  2  8  1  0  0  0  0
  6  8  1  0  0  0  0
  6  9  1  0  0  0  0
  1 10  1  0  0  0  0
  1 11  1  0  0  0  0
  1 12  1  0  0  0  0
  4 13  1  0  0  0  0
  4 14  1  0  0  0  0
  5 15  1  0  0  0  0
  5 16  1  0  0  0  0
  9 17  1  0  0  0  0
  9 18  1  0  0  0  0
  9 19  1  0  0  0  0
M  END
