 xtb: 6.7.1 (edcfbbe)
          04062518003D

 24 24  0     0  0            999 V2000
   -2.5201   -1.0098    0.2995 C   0  0  0  0  0  0  0  0  0  0  0  0
   -1.0823   -0.5282    0.5740 C   0  0  0  0  0  0  0  0  0  0  0  0
   -0.9407   -0.4788    1.6650 H   0  0  0  0  0  0  0  0  0  0  0  0
   -0.8071    0.8616   -0.0172 C   0  0  0  0  0  0  0  0  0  0  0  0
   -0.9428    0.8133   -1.1090 H   0  0  0  0  0  0  0  0  0  0  0  0
    0.6522    1.2461    0.2519 C   0  0  0  0  0  0  0  0  0  0  0  0
    0.8022    1.3358    1.3417 H   0  0  0  0  0  0  0  0  0  0  0  0
    1.5779    0.1503   -0.2997 C   0  0  0  0  0  0  0  0  0  0  0  0
    1.4535    0.1008   -1.3876 H   0  0  0  0  0  0  0  0  0  0  0  0
    1.1694   -1.2038    0.3174 C   0  0  0  0  0  0  0  0  0  0  0  0
    1.3173   -1.1562    1.4125 H   0  0  0  0  0  0  0  0  0  0  0  0
   -0.1832   -1.4761    0.0294 O   0  0  0  0  0  0  0  0  0  0  0  0
    1.9385   -2.2574   -0.1255 O   0  0  0  0  0  0  0  0  0  0  0  0
    2.9286    0.4670   -0.0823 O   0  0  0  0  0  0  0  0  0  0  0  0
    0.8965    2.4890   -0.3621 O   0  0  0  0  0  0  0  0  0  0  0  0
   -1.7053    1.7765    0.5546 O   0  0  0  0  0  0  0  0  0  0  0  0
   -2.9959   -0.7105   -0.9852 O   0  0  0  0  0  0  0  0  0  0  0  0
   -3.1736   -0.5823    1.0655 H   0  0  0  0  0  0  0  0  0  0  0  0
   -2.5213   -2.0985    0.3809 H   0  0  0  0  0  0  0  0  0  0  0  0
    1.6937   -2.4812   -1.0370 H   0  0  0  0  0  0  0  0  0  0  0  0
    3.1939    0.2228    0.8160 H   0  0  0  0  0  0  0  0  0  0  0  0
    1.8549    2.6128   -0.4402 H   0  0  0  0  0  0  0  0  0  0  0  0
   -1.4213    2.6708    0.3097 H   0  0  0  0  0  0  0  0  0  0  0  0
   -3.2373    0.2259   -1.0205 H   0  0  0  0  0  0  0  0  0  0  0  0
  1  2  1  0  0  0  0
  2  3  1  0  0  0  0
  2  4  1  0  0  0  0
  4  5  1  0  0  0  0
  4  6  1  0  0  0  0
  6  7  1  0  0  0  0
  6  8  1  0  0  0  0
  8  9  1  0  0  0  0
  8 10  1  0  0  0  0
 10 11  1  0  0  0  0
  2 12  1  0  0  0  0
 10 12  1  0  0  0  0
 10 13  1  0  0  0  0
  8 14  1  0  0  0  0
  6 15  1  0  0  0  0
  4 16  1  0  0  0  0
  1 17  1  0  0  0  0
  1 18  1  0  0  0  0
  1 19  1  0  0  0  0
 13 20  1  0  0  0  0
 14 21  1  0  0  0  0
 15 22  1  0  0  0  0
 16 23  1  0  0  0  0
 17 24  1  0  0  0  0
M  END
