 xtb: 6.7.1 (edcfbbe)
          04062518003D

 24 24  0     0  0            999 V2000
   -1.6391   -1.2767   -0.6898 C   0  0  0  0  0  0  0  0  0  0  0  0
   -1.1641   -0.4660    0.5346 C   0  0  0  0  0  0  0  0  0  0  0  0
   -1.9600   -0.5031    1.2873 H   0  0  0  0  0  0  0  0  0  0  0  0
   -0.8705    1.0201    0.2155 C   0  0  0  0  0  0  0  0  0  0  0  0
   -1.2698    1.2813   -0.7742 H   0  0  0  0  0  0  0  0  0  0  0  0
    0.6383    1.2921    0.1669 C   0  0  0  0  0  0  0  0  0  0  0  0
    0.9812    1.4830    1.1946 H   0  0  0  0  0  0  0  0  0  0  0  0
    1.4054    0.0868   -0.3878 C   0  0  0  0  0  0  0  0  0  0  0  0
    1.0573   -0.1192   -1.4096 H   0  0  0  0  0  0  0  0  0  0  0  0
    1.1423   -1.1518    0.4847 C   0  0  0  0  0  0  0  0  0  0  0  0
    1.9121   -1.1954    1.2713 H   0  0  0  0  0  0  0  0  0  0  0  0
   -0.0688   -1.0889    1.1927 O   0  0  0  0  0  0  0  0  0  0  0  0
    1.2119   -2.2730   -0.3447 O   0  0  0  0  0  0  0  0  0  0  0  0
    2.7681    0.4306   -0.3976 O   0  0  0  0  0  0  0  0  0  0  0  0
    0.8444    2.4214   -0.6412 O   0  0  0  0  0  0  0  0  0  0  0  0
   -1.4026    1.8802    1.1942 O   0  0  0  0  0  0  0  0  0  0  0  0
   -2.9276   -0.9035   -1.1096 O   0  0  0  0  0  0  0  0  0  0  0  0
   -1.7142   -2.3242   -0.3894 H   0  0  0  0  0  0  0  0  0  0  0  0
   -0.9161   -1.2021   -1.5079 H   0  0  0  0  0  0  0  0  0  0  0  0
    1.1543   -3.0846    0.1820 H   0  0  0  0  0  0  0  0  0  0  0  0
    3.2765   -0.2555   -0.8529 H   0  0  0  0  0  0  0  0  0  0  0  0
    1.7991    2.5797   -0.7013 H   0  0  0  0  0  0  0  0  0  0  0  0
   -2.3676    1.9085    1.1253 H   0  0  0  0  0  0  0  0  0  0  0  0
   -2.8922   -0.0730   -1.6033 H   0  0  0  0  0  0  0  0  0  0  0  0
  1  2  1  0  0  0  0
  2  3  1  0  0  0  0
  2  4  1  0  0  0  0
  4  5  1  0  0  0  0
  4  6  1  0  0  0  0
  6  7  1  0  0  0  0
  6  8  1  0  0  0  0
  8  9  1  0  0  0  0
  8 10  1  0  0  0  0
 10 11  1  0  0  0  0
  2 12  1  0  0  0  0
 10 12  1  0  0  0  0
 10 13  1  0  0  0  0
  8 14  1  0  0  0  0
  6 15  1  0  0  0  0
  4 16  1  0  0  0  0
  1 17  1  0  0  0  0
  1 18  1  0  0  0  0
  1 19  1  0  0  0  0
 13 20  1  0  0  0  0
 14 21  1  0  0  0  0
 15 22  1  0  0  0  0
 16 23  1  0  0  0  0
 17 24  1  0  0  0  0
M  END
