 xtb: 6.7.1 (edcfbbe)
          04062518003D

 24 24  0     0  0            999 V2000
   -2.1541   -1.0182   -0.4879 C   0  0  0  0  0  0  0  0  0  0  0  0
   -1.2166   -0.1823    0.4041 C   0  0  0  0  0  0  0  0  0  0  0  0
   -1.7732    0.1954    1.2711 H   0  0  0  0  0  0  0  0  0  0  0  0
   -0.6448    1.0268   -0.3623 C   0  0  0  0  0  0  0  0  0  0  0  0
   -0.5447    0.7861   -1.4301 H   0  0  0  0  0  0  0  0  0  0  0  0
    0.7544    1.3361    0.1841 C   0  0  0  0  0  0  0  0  0  0  0  0
    0.6892    1.4629    1.2761 H   0  0  0  0  0  0  0  0  0  0  0  0
    1.6735    0.1516   -0.1251 C   0  0  0  0  0  0  0  0  0  0  0  0
    1.8648    0.1378   -1.2086 H   0  0  0  0  0  0  0  0  0  0  0  0
    0.9779   -1.1724    0.2487 C   0  0  0  0  0  0  0  0  0  0  0  0
    1.6423   -1.7116    0.9393 H   0  0  0  0  0  0  0  0  0  0  0  0
   -0.1949   -0.9842    0.9945 O   0  0  0  0  0  0  0  0  0  0  0  0
    0.7585   -1.8927   -0.9227 O   0  0  0  0  0  0  0  0  0  0  0  0
    2.8797    0.2256    0.5868 O   0  0  0  0  0  0  0  0  0  0  0  0
    1.3053    2.4828   -0.4098 O   0  0  0  0  0  0  0  0  0  0  0  0
   -1.4254    2.1846   -0.1835 O   0  0  0  0  0  0  0  0  0  0  0  0
   -2.6370   -2.1728    0.1481 O   0  0  0  0  0  0  0  0  0  0  0  0
   -1.6087   -1.3685   -1.3666 H   0  0  0  0  0  0  0  0  0  0  0  0
   -2.9864   -0.3801   -0.8148 H   0  0  0  0  0  0  0  0  0  0  0  0
    0.4590   -2.7897   -0.7061 H   0  0  0  0  0  0  0  0  0  0  0  0
    3.3008    1.0762    0.3875 H   0  0  0  0  0  0  0  0  0  0  0  0
    0.6459    3.1926   -0.3608 H   0  0  0  0  0  0  0  0  0  0  0  0
   -2.2404    2.1275   -0.6999 H   0  0  0  0  0  0  0  0  0  0  0  0
   -3.0734   -1.9303    0.9770 H   0  0  0  0  0  0  0  0  0  0  0  0
  1  2  1  0  0  0  0
  2  3  1  0  0  0  0
  2  4  1  0  0  0  0
  4  5  1  0  0  0  0
  4  6  1  0  0  0  0
  6  7  1  0  0  0  0
  6  8  1  0  0  0  0
  8  9  1  0  0  0  0
  8 10  1  0  0  0  0
 10 11  1  0  0  0  0
  2 12  1  0  0  0  0
 10 12  1  0  0  0  0
 10 13  1  0  0  0  0
  8 14  1  0  0  0  0
  6 15  1  0  0  0  0
  4 16  1  0  0  0  0
  1 17  1  0  0  0  0
  1 18  1  0  0  0  0
  1 19  1  0  0  0  0
 13 20  1  0  0  0  0
 14 21  1  0  0  0  0
 15 22  1  0  0  0  0
 16 23  1  0  0  0  0
 17 24  1  0  0  0  0
M  END
