 xtb: 6.7.1 (edcfbbe)
          04032521143D

 20 20  0     0  0            999 V2000
   -2.3824   -0.0000    0.0055 C   0  0  0  0  0  0  0  0  0  0  0  0
   -0.9667    0.0000   -0.2926 N   0  0  0  0  0  0  0  0  0  0  0  0
   -0.3141    1.1936    0.2182 C   0  0  0  0  0  0  0  0  0  0  0  0
    1.1413    1.2400   -0.2362 C   0  0  0  0  0  0  0  0  0  0  0  0
    1.8810   -0.0000    0.2534 C   0  0  0  0  0  0  0  0  0  0  0  0
    1.1413   -1.2400   -0.2363 C   0  0  0  0  0  0  0  0  0  0  0  0
   -0.3140   -1.1935    0.2183 C   0  0  0  0  0  0  0  0  0  0  0  0
   -2.8389   -0.8852   -0.4343 H   0  0  0  0  0  0  0  0  0  0  0  0
   -2.8389    0.8850   -0.4344 H   0  0  0  0  0  0  0  0  0  0  0  0
   -2.5887   -0.0001    1.0889 H   0  0  0  0  0  0  0  0  0  0  0  0
   -0.8512    2.0641   -0.1668 H   0  0  0  0  0  0  0  0  0  0  0  0
   -0.3571    1.2286    1.3247 H   0  0  0  0  0  0  0  0  0  0  0  0
    1.1663    1.2699   -1.3261 H   0  0  0  0  0  0  0  0  0  0  0  0
    1.6119    2.1463    0.1474 H   0  0  0  0  0  0  0  0  0  0  0  0
    2.9080    0.0000   -0.1145 H   0  0  0  0  0  0  0  0  0  0  0  0
    1.9119   -0.0001    1.3461 H   0  0  0  0  0  0  0  0  0  0  0  0
    1.1663   -1.2698   -1.3262 H   0  0  0  0  0  0  0  0  0  0  0  0
    1.6118   -2.1463    0.1472 H   0  0  0  0  0  0  0  0  0  0  0  0
   -0.8513   -2.0640   -0.1665 H   0  0  0  0  0  0  0  0  0  0  0  0
   -0.3570   -1.2284    1.3247 H   0  0  0  0  0  0  0  0  0  0  0  0
  1  2  1  0  0  0  0
  2  3  1  0  0  0  0
  3  4  1  0  0  0  0
  4  5  1  0  0  0  0
  5  6  1  0  0  0  0
  2  7  1  0  0  0  0
  6  7  1  0  0  0  0
  1  8  1  0  0  0  0
  1  9  1  0  0  0  0
  1 10  1  0  0  0  0
  3 11  1  0  0  0  0
  3 12  1  0  0  0  0
  4 13  1  0  0  0  0
  4 14  1  0  0  0  0
  5 15  1  0  0  0  0
  5 16  1  0  0  0  0
  6 17  1  0  0  0  0
  6 18  1  0  0  0  0
  7 19  1  0  0  0  0
  7 20  1  0  0  0  0
M  END
