 xtb: 6.7.1 (edcfbbe)
          04052508533D

 21 21  0     0  0            999 V2000
   -2.6605   -0.5830   -0.7405 C   0  0  0  0  0  0  0  0  0  0  0  0
   -1.8719   -0.5205    0.5698 C   0  0  0  0  0  0  0  0  0  0  0  0
   -0.4031   -0.3229    0.3042 C   0  0  0  0  0  0  0  0  0  0  0  0
    0.4168   -1.4465    0.2629 C   0  0  0  0  0  0  0  0  0  0  0  0
    1.7689   -1.3496   -0.0038 C   0  0  0  0  0  0  0  0  0  0  0  0
    2.3282   -0.1048   -0.2359 C   0  0  0  0  0  0  0  0  0  0  0  0
    1.5240    1.0173   -0.2010 C   0  0  0  0  0  0  0  0  0  0  0  0
    0.1593    0.9314    0.0608 C   0  0  0  0  0  0  0  0  0  0  0  0
   -0.6268    2.2116    0.0739 C   0  0  0  0  0  0  0  0  0  0  0  0
   -2.5454    0.3392   -1.3045 H   0  0  0  0  0  0  0  0  0  0  0  0
   -3.7176   -0.7398   -0.5398 H   0  0  0  0  0  0  0  0  0  0  0  0
   -2.2978   -1.4035   -1.3557 H   0  0  0  0  0  0  0  0  0  0  0  0
   -2.0112   -1.4588    1.1103 H   0  0  0  0  0  0  0  0  0  0  0  0
   -2.2620    0.2812    1.1980 H   0  0  0  0  0  0  0  0  0  0  0  0
   -0.0194   -2.4185    0.4471 H   0  0  0  0  0  0  0  0  0  0  0  0
    2.3826   -2.2379   -0.0287 H   0  0  0  0  0  0  0  0  0  0  0  0
    3.3839   -0.0103   -0.4439 H   0  0  0  0  0  0  0  0  0  0  0  0
    1.9577    1.9906   -0.3836 H   0  0  0  0  0  0  0  0  0  0  0  0
   -0.4736    2.7466   -0.8621 H   0  0  0  0  0  0  0  0  0  0  0  0
   -1.6900    2.0475    0.2045 H   0  0  0  0  0  0  0  0  0  0  0  0
   -0.2736    2.8514    0.8820 H   0  0  0  0  0  0  0  0  0  0  0  0
  1  2  1  0  0  0  0
  2  3  1  0  0  0  0
  3  4  4  0  0  0  0
  4  5  4  0  0  0  0
  5  6  4  0  0  0  0
  6  7  4  0  0  0  0
  3  8  4  0  0  0  0
  7  8  4  0  0  0  0
  8  9  1  0  0  0  0
  1 10  1  0  0  0  0
  1 11  1  0  0  0  0
  1 12  1  0  0  0  0
  2 13  1  0  0  0  0
  2 14  1  0  0  0  0
  4 15  1  0  0  0  0
  5 16  1  0  0  0  0
  6 17  1  0  0  0  0
  7 18  1  0  0  0  0
  9 19  1  0  0  0  0
  9 20  1  0  0  0  0
  9 21  1  0  0  0  0
M  END
