 xtb: 6.7.1 (edcfbbe)
          04032522113D

 11 10  0     0  0            999 V2000
   -2.4803    0.2340    0.0132 C   0  0  0  0  0  0  0  0  0  0  0  0
   -1.0519    0.3341    0.0038 O   0  0  0  0  0  0  0  0  0  0  0  0
   -0.3661   -0.7883   -0.0168 C   0  0  0  0  0  0  0  0  0  0  0  0
   -0.8617   -1.8940   -0.0270 O   0  0  0  0  0  0  0  0  0  0  0  0
    1.1337   -0.5867   -0.0289 C   0  0  0  0  0  0  0  0  0  0  0  0
    1.5961    1.1319    0.0231 Cl  0  0  0  0  0  0  0  0  0  0  0  0
   -2.8231   -0.2532   -0.8998 H   0  0  0  0  0  0  0  0  0  0  0  0
   -2.8426    1.2553    0.0720 H   0  0  0  0  0  0  0  0  0  0  0  0
   -2.8059   -0.3508    0.8737 H   0  0  0  0  0  0  0  0  0  0  0  0
    1.5462   -1.0230   -0.9395 H   0  0  0  0  0  0  0  0  0  0  0  0
    1.5702   -1.0845    0.8378 H   0  0  0  0  0  0  0  0  0  0  0  0
  1  2  1  0  0  0  0
  2  3  1  0  0  0  0
  3  4  2  0  0  0  0
  3  5  1  0  0  0  0
  5  6  1  0  0  0  0
  1  7  1  0  0  0  0
  1  8  1  0  0  0  0
  1  9  1  0  0  0  0
  5 10  1  0  0  0  0
  5 11  1  0  0  0  0
M  END
