 xtb: 6.7.1 (edcfbbe)
          04062518003D

 24 24  0     0  0            999 V2000
   -1.7520   -1.0365   -0.6810 C   0  0  0  0  0  0  0  0  0  0  0  0
   -1.0733   -0.4734    0.5855 C   0  0  0  0  0  0  0  0  0  0  0  0
   -1.7655   -0.5856    1.4282 H   0  0  0  0  0  0  0  0  0  0  0  0
   -0.7121    1.0165    0.4845 C   0  0  0  0  0  0  0  0  0  0  0  0
   -1.5765    1.5616    0.0937 H   0  0  0  0  0  0  0  0  0  0  0  0
    0.4871    1.2466   -0.4542 C   0  0  0  0  0  0  0  0  0  0  0  0
    0.8074    2.2923   -0.3075 H   0  0  0  0  0  0  0  0  0  0  0  0
    1.6595    0.3333   -0.0381 C   0  0  0  0  0  0  0  0  0  0  0  0
    2.4005    0.2978   -0.8493 H   0  0  0  0  0  0  0  0  0  0  0  0
    1.2208   -1.1238    0.1949 C   0  0  0  0  0  0  0  0  0  0  0  0
    1.9930   -1.5947    0.8249 H   0  0  0  0  0  0  0  0  0  0  0  0
    0.0569   -1.2568    0.9657 O   0  0  0  0  0  0  0  0  0  0  0  0
    1.1386   -1.7509   -1.0470 O   0  0  0  0  0  0  0  0  0  0  0  0
    2.2429    0.7749    1.1649 O   0  0  0  0  0  0  0  0  0  0  0  0
    0.0678    1.0477   -1.7775 O   0  0  0  0  0  0  0  0  0  0  0  0
   -0.4613    1.5676    1.7537 O   0  0  0  0  0  0  0  0  0  0  0  0
   -2.9680   -0.3899   -0.9737 O   0  0  0  0  0  0  0  0  0  0  0  0
   -1.9997   -2.0833   -0.4846 H   0  0  0  0  0  0  0  0  0  0  0  0
   -1.0636   -0.9806   -1.5268 H   0  0  0  0  0  0  0  0  0  0  0  0
    0.9888   -2.7005   -0.9287 H   0  0  0  0  0  0  0  0  0  0  0  0
    2.7159    1.6074    1.0185 H   0  0  0  0  0  0  0  0  0  0  0  0
    0.7942    1.2334   -2.3895 H   0  0  0  0  0  0  0  0  0  0  0  0
    0.2978    1.1060    2.1479 H   0  0  0  0  0  0  0  0  0  0  0  0
   -2.7862    0.4081   -1.4872 H   0  0  0  0  0  0  0  0  0  0  0  0
  1  2  1  0  0  0  0
  2  3  1  0  0  0  0
  2  4  1  0  0  0  0
  4  5  1  0  0  0  0
  4  6  1  0  0  0  0
  6  7  1  0  0  0  0
  6  8  1  0  0  0  0
  8  9  1  0  0  0  0
  8 10  1  0  0  0  0
 10 11  1  0  0  0  0
  2 12  1  0  0  0  0
 10 12  1  0  0  0  0
 10 13  1  0  0  0  0
  8 14  1  0  0  0  0
  6 15  1  0  0  0  0
  4 16  1  0  0  0  0
  1 17  1  0  0  0  0
  1 18  1  0  0  0  0
  1 19  1  0  0  0  0
 13 20  1  0  0  0  0
 14 21  1  0  0  0  0
 15 22  1  0  0  0  0
 16 23  1  0  0  0  0
 17 24  1  0  0  0  0
M  END
