 xtb: 6.7.1 (edcfbbe)
          04062518003D

 24 24  0     0  0            999 V2000
   -2.2371   -0.9707   -0.4109 C   0  0  0  0  0  0  0  0  0  0  0  0
   -1.1707   -0.2120    0.3877 C   0  0  0  0  0  0  0  0  0  0  0  0
   -1.6440    0.2180    1.2787 H   0  0  0  0  0  0  0  0  0  0  0  0
   -0.5721    0.9333   -0.4302 C   0  0  0  0  0  0  0  0  0  0  0  0
   -0.3977    0.6057   -1.4682 H   0  0  0  0  0  0  0  0  0  0  0  0
    0.7797    1.3103    0.1848 C   0  0  0  0  0  0  0  0  0  0  0  0
    0.6570    1.4654    1.2669 H   0  0  0  0  0  0  0  0  0  0  0  0
    1.7523    0.1460   -0.0311 C   0  0  0  0  0  0  0  0  0  0  0  0
    2.0924    0.1781   -1.0758 H   0  0  0  0  0  0  0  0  0  0  0  0
    1.0254   -1.2070    0.1652 C   0  0  0  0  0  0  0  0  0  0  0  0
    1.6441   -1.8486    0.8103 H   0  0  0  0  0  0  0  0  0  0  0  0
   -0.1751   -1.1072    0.8875 O   0  0  0  0  0  0  0  0  0  0  0  0
    0.8494   -1.7718   -1.0982 O   0  0  0  0  0  0  0  0  0  0  0  0
    2.8240    0.3188    0.8604 O   0  0  0  0  0  0  0  0  0  0  0  0
    1.2247    2.4889   -0.4369 O   0  0  0  0  0  0  0  0  0  0  0  0
   -1.4776    2.0025   -0.4085 O   0  0  0  0  0  0  0  0  0  0  0  0
   -2.9600   -1.8724    0.3896 O   0  0  0  0  0  0  0  0  0  0  0  0
   -1.7588   -1.4939   -1.2496 H   0  0  0  0  0  0  0  0  0  0  0  0
   -2.9570   -0.2495   -0.8018 H   0  0  0  0  0  0  0  0  0  0  0  0
    0.5883   -2.7024   -1.0222 H   0  0  0  0  0  0  0  0  0  0  0  0
    3.5551   -0.2720    0.6297 H   0  0  0  0  0  0  0  0  0  0  0  0
    2.0663    2.7570   -0.0416 H   0  0  0  0  0  0  0  0  0  0  0  0
   -1.0100    2.7937   -0.7218 H   0  0  0  0  0  0  0  0  0  0  0  0
   -2.3305   -2.3828    0.9205 H   0  0  0  0  0  0  0  0  0  0  0  0
  1  2  1  0  0  0  0
  2  3  1  0  0  0  0
  2  4  1  0  0  0  0
  4  5  1  0  0  0  0
  4  6  1  0  0  0  0
  6  7  1  0  0  0  0
  6  8  1  0  0  0  0
  8  9  1  0  0  0  0
  8 10  1  0  0  0  0
 10 11  1  0  0  0  0
  2 12  1  0  0  0  0
 10 12  1  0  0  0  0
 10 13  1  0  0  0  0
  8 14  1  0  0  0  0
  6 15  1  0  0  0  0
  4 16  1  0  0  0  0
  1 17  1  0  0  0  0
  1 18  1  0  0  0  0
  1 19  1  0  0  0  0
 13 20  1  0  0  0  0
 14 21  1  0  0  0  0
 15 22  1  0  0  0  0
 16 23  1  0  0  0  0
 17 24  1  0  0  0  0
M  END
