 xtb: 6.7.1 (edcfbbe)
          04062518003D

 24 24  0     0  0            999 V2000
   -1.8332   -0.9616   -0.8378 C   0  0  0  0  0  0  0  0  0  0  0  0
   -1.2806   -0.1746    0.3578 C   0  0  0  0  0  0  0  0  0  0  0  0
   -2.0980   -0.0590    1.0776 H   0  0  0  0  0  0  0  0  0  0  0  0
   -0.7781    1.2312   -0.0637 C   0  0  0  0  0  0  0  0  0  0  0  0
   -0.9391    1.3857   -1.1358 H   0  0  0  0  0  0  0  0  0  0  0  0
    0.7302    1.3509    0.1940 C   0  0  0  0  0  0  0  0  0  0  0  0
    0.9150    1.4215    1.2789 H   0  0  0  0  0  0  0  0  0  0  0  0
    1.4331    0.0895   -0.3243 C   0  0  0  0  0  0  0  0  0  0  0  0
    1.1773   -0.0521   -1.3835 H   0  0  0  0  0  0  0  0  0  0  0  0
    0.9313   -1.1270    0.4758 C   0  0  0  0  0  0  0  0  0  0  0  0
    1.6213   -1.3032    1.3177 H   0  0  0  0  0  0  0  0  0  0  0  0
   -0.3030   -0.8935    1.1003 O   0  0  0  0  0  0  0  0  0  0  0  0
    0.9086   -2.2266   -0.3821 O   0  0  0  0  0  0  0  0  0  0  0  0
    2.8161    0.2834   -0.1700 O   0  0  0  0  0  0  0  0  0  0  0  0
    1.2065    2.4993   -0.4541 O   0  0  0  0  0  0  0  0  0  0  0  0
   -1.5138    2.2518    0.5543 O   0  0  0  0  0  0  0  0  0  0  0  0
   -2.4529   -2.1324   -0.3569 O   0  0  0  0  0  0  0  0  0  0  0  0
   -1.0189   -1.2097   -1.5291 H   0  0  0  0  0  0  0  0  0  0  0  0
   -2.5600   -0.3166   -1.3467 H   0  0  0  0  0  0  0  0  0  0  0  0
    0.5826   -3.0066    0.0926 H   0  0  0  0  0  0  0  0  0  0  0  0
    3.3003   -0.4309   -0.6074 H   0  0  0  0  0  0  0  0  0  0  0  0
    2.1765    2.4780   -0.4281 H   0  0  0  0  0  0  0  0  0  0  0  0
   -1.2964    2.2937    1.4972 H   0  0  0  0  0  0  0  0  0  0  0  0
   -2.8587   -2.6054   -1.0970 H   0  0  0  0  0  0  0  0  0  0  0  0
  1  2  1  0  0  0  0
  2  3  1  0  0  0  0
  2  4  1  0  0  0  0
  4  5  1  0  0  0  0
  4  6  1  0  0  0  0
  6  7  1  0  0  0  0
  6  8  1  0  0  0  0
  8  9  1  0  0  0  0
  8 10  1  0  0  0  0
 10 11  1  0  0  0  0
  2 12  1  0  0  0  0
 10 12  1  0  0  0  0
 10 13  1  0  0  0  0
  8 14  1  0  0  0  0
  6 15  1  0  0  0  0
  4 16  1  0  0  0  0
  1 17  1  0  0  0  0
  1 18  1  0  0  0  0
  1 19  1  0  0  0  0
 13 20  1  0  0  0  0
 14 21  1  0  0  0  0
 15 22  1  0  0  0  0
 16 23  1  0  0  0  0
 17 24  1  0  0  0  0
M  END
