 xtb: 6.7.1 (edcfbbe)
          04052516073D

 27 27  0     0  0            999 V2000
   -2.9009    0.7890    0.7433 C   0  0  0  0  0  0  0  0  0  0  0  0
   -1.4364    0.6259    0.3387 C   0  0  0  0  0  0  0  0  0  0  0  0
   -0.8092    1.0594    1.1286 H   0  0  0  0  0  0  0  0  0  0  0  0
   -1.1065    1.3245   -0.9779 C   0  0  0  0  0  0  0  0  0  0  0  0
    0.3970    1.3007   -1.2454 C   0  0  0  0  0  0  0  0  0  0  0  0
    1.0357   -0.0909   -0.9986 C   0  0  0  0  0  0  0  0  0  0  0  0
    1.5962   -0.3713   -1.8967 H   0  0  0  0  0  0  0  0  0  0  0  0
   -0.0420   -1.1625   -0.8040 C   0  0  0  0  0  0  0  0  0  0  0  0
   -1.0528   -0.8350    0.2588 C   0  0  0  0  0  0  0  0  0  0  0  0
   -1.5462   -1.6871    0.9749 O   0  0  0  0  0  0  0  0  0  0  0  0
    2.0516   -0.0317    0.1310 C   0  0  0  0  0  0  0  0  0  0  0  0
    3.1104    0.7581    0.0178 C   0  0  0  0  0  0  0  0  0  0  0  0
    1.8594   -0.8887    1.3439 C   0  0  0  0  0  0  0  0  0  0  0  0
   -3.1253    1.8318    0.9485 H   0  0  0  0  0  0  0  0  0  0  0  0
   -3.5521    0.4404   -0.0553 H   0  0  0  0  0  0  0  0  0  0  0  0
   -3.1083    0.1992    1.6330 H   0  0  0  0  0  0  0  0  0  0  0  0
   -1.6506    0.8384   -1.7896 H   0  0  0  0  0  0  0  0  0  0  0  0
   -1.4452    2.3603   -0.9320 H   0  0  0  0  0  0  0  0  0  0  0  0
    0.5769    1.6163   -2.2731 H   0  0  0  0  0  0  0  0  0  0  0  0
    0.8798    2.0284   -0.5918 H   0  0  0  0  0  0  0  0  0  0  0  0
   -0.6111   -1.2521   -1.7340 H   0  0  0  0  0  0  0  0  0  0  0  0
    0.3961   -2.1402   -0.6017 H   0  0  0  0  0  0  0  0  0  0  0  0
    3.8515    0.8298    0.7949 H   0  0  0  0  0  0  0  0  0  0  0  0
    3.2800    1.3629   -0.8567 H   0  0  0  0  0  0  0  0  0  0  0  0
    2.5875   -0.6291    2.1078 H   0  0  0  0  0  0  0  0  0  0  0  0
    0.8610   -0.7768    1.7618 H   0  0  0  0  0  0  0  0  0  0  0  0
    1.9919   -1.9403    1.0916 H   0  0  0  0  0  0  0  0  0  0  0  0
  1  2  1  0  0  0  0
  2  3  1  0  0  0  0
  2  4  1  0  0  0  0
  4  5  1  0  0  0  0
  5  6  1  0  0  0  0
  6  7  1  0  0  0  0
  6  8  1  0  0  0  0
  2  9  1  0  0  0  0
  8  9  1  0  0  0  0
  9 10  2  0  0  0  0
  6 11  1  0  0  0  0
 11 12  2  0  0  0  0
 11 13  1  0  0  0  0
  1 14  1  0  0  0  0
  1 15  1  0  0  0  0
  1 16  1  0  0  0  0
  4 17  1  0  0  0  0
  4 18  1  0  0  0  0
  5 19  1  0  0  0  0
  5 20  1  0  0  0  0
  8 21  1  0  0  0  0
  8 22  1  0  0  0  0
 12 23  1  0  0  0  0
 12 24  1  0  0  0  0
 13 25  1  0  0  0  0
 13 26  1  0  0  0  0
 13 27  1  0  0  0  0
M  END
