 xtb: 6.7.1 (edcfbbe)
          04062520053D

 27 27  0     0  0            999 V2000
   -3.3262    0.4462   -0.2916 C   0  0  0  0  0  0  0  0  0  0  0  0
   -1.8587    0.5106   -0.0183 C   0  0  0  0  0  0  0  0  0  0  0  0
   -1.0970    1.5830   -0.2004 C   0  0  0  0  0  0  0  0  0  0  0  0
    0.3651    1.4955    0.0969 C   0  0  0  0  0  0  0  0  0  0  0  0
    0.9642    0.2550   -0.5985 C   0  0  0  0  0  0  0  0  0  0  0  0
    0.9727    0.4680   -1.6719 H   0  0  0  0  0  0  0  0  0  0  0  0
    0.0899   -0.9972   -0.3672 C   0  0  0  0  0  0  0  0  0  0  0  0
   -1.1532   -0.7218    0.5027 C   0  0  0  0  0  0  0  0  0  0  0  0
   -0.8308   -0.5284    1.5351 H   0  0  0  0  0  0  0  0  0  0  0  0
   -1.9705   -1.8673    0.6100 O   0  0  0  0  0  0  0  0  0  0  0  0
    2.3891    0.0081   -0.1669 C   0  0  0  0  0  0  0  0  0  0  0  0
    3.3676   -0.0771   -1.0553 C   0  0  0  0  0  0  0  0  0  0  0  0
    2.6474   -0.1398    1.3030 C   0  0  0  0  0  0  0  0  0  0  0  0
   -3.7324    1.4464   -0.4138 H   0  0  0  0  0  0  0  0  0  0  0  0
   -3.8359   -0.0548    0.5296 H   0  0  0  0  0  0  0  0  0  0  0  0
   -3.5225   -0.1176   -1.2037 H   0  0  0  0  0  0  0  0  0  0  0  0
   -1.5028    2.5126   -0.5686 H   0  0  0  0  0  0  0  0  0  0  0  0
    0.8921    2.3881   -0.2398 H   0  0  0  0  0  0  0  0  0  0  0  0
    0.5045    1.4040    1.1769 H   0  0  0  0  0  0  0  0  0  0  0  0
   -0.2596   -1.3746   -1.3305 H   0  0  0  0  0  0  0  0  0  0  0  0
    0.6718   -1.7938    0.0990 H   0  0  0  0  0  0  0  0  0  0  0  0
   -2.2604   -2.1297   -0.2745 H   0  0  0  0  0  0  0  0  0  0  0  0
    4.3865   -0.2683   -0.7629 H   0  0  0  0  0  0  0  0  0  0  0  0
    3.1928    0.0422   -2.1112 H   0  0  0  0  0  0  0  0  0  0  0  0
    3.5957   -0.6416    1.4754 H   0  0  0  0  0  0  0  0  0  0  0  0
    2.6951    0.8416    1.7739 H   0  0  0  0  0  0  0  0  0  0  0  0
    1.8542   -0.7063    1.7851 H   0  0  0  0  0  0  0  0  0  0  0  0
  1  2  1  0  0  0  0
  2  3  2  0  0  0  0
  3  4  1  0  0  0  0
  4  5  1  0  0  0  0
  5  6  1  0  0  0  0
  5  7  1  0  0  0  0
  2  8  1  0  0  0  0
  7  8  1  0  0  0  0
  8  9  1  0  0  0  0
  8 10  1  0  0  0  0
  5 11  1  0  0  0  0
 11 12  2  0  0  0  0
 11 13  1  0  0  0  0
  1 14  1  0  0  0  0
  1 15  1  0  0  0  0
  1 16  1  0  0  0  0
  3 17  1  0  0  0  0
  4 18  1  0  0  0  0
  4 19  1  0  0  0  0
  7 20  1  0  0  0  0
  7 21  1  0  0  0  0
 10 22  1  0  0  0  0
 12 23  1  0  0  0  0
 12 24  1  0  0  0  0
 13 25  1  0  0  0  0
 13 26  1  0  0  0  0
 13 27  1  0  0  0  0
M  END
