 xtb: 6.7.1 (edcfbbe)
          04062518003D

 24 24  0     0  0            999 V2000
   -2.5198   -0.9902    0.3383 C   0  0  0  0  0  0  0  0  0  0  0  0
   -1.0765   -0.5143    0.5895 C   0  0  0  0  0  0  0  0  0  0  0  0
   -0.9207   -0.4500    1.6774 H   0  0  0  0  0  0  0  0  0  0  0  0
   -0.7978    0.8643   -0.0250 C   0  0  0  0  0  0  0  0  0  0  0  0
   -0.9351    0.7990   -1.1160 H   0  0  0  0  0  0  0  0  0  0  0  0
    0.6628    1.2516    0.2335 C   0  0  0  0  0  0  0  0  0  0  0  0
    0.8281    1.3479    1.3187 H   0  0  0  0  0  0  0  0  0  0  0  0
    1.5816    0.1503   -0.3010 C   0  0  0  0  0  0  0  0  0  0  0  0
    1.4721    0.0966   -1.3957 H   0  0  0  0  0  0  0  0  0  0  0  0
    1.1620   -1.2049    0.3075 C   0  0  0  0  0  0  0  0  0  0  0  0
    1.3495   -1.1687    1.3962 H   0  0  0  0  0  0  0  0  0  0  0  0
   -0.1902   -1.4759    0.0471 O   0  0  0  0  0  0  0  0  0  0  0  0
    1.9241   -2.2428   -0.2005 O   0  0  0  0  0  0  0  0  0  0  0  0
    2.9052    0.4721    0.0463 O   0  0  0  0  0  0  0  0  0  0  0  0
    0.8935    2.4860   -0.4001 O   0  0  0  0  0  0  0  0  0  0  0  0
   -1.6906    1.7924    0.5320 O   0  0  0  0  0  0  0  0  0  0  0  0
   -2.9918   -0.7446   -0.9593 O   0  0  0  0  0  0  0  0  0  0  0  0
   -3.1661   -0.5188    1.0844 H   0  0  0  0  0  0  0  0  0  0  0  0
   -2.5359   -2.0739    0.4697 H   0  0  0  0  0  0  0  0  0  0  0  0
    1.4899   -2.5898   -0.9960 H   0  0  0  0  0  0  0  0  0  0  0  0
    3.4736   -0.2924   -0.1320 H   0  0  0  0  0  0  0  0  0  0  0  0
    1.8360    2.6975   -0.3320 H   0  0  0  0  0  0  0  0  0  0  0  0
   -1.3961    2.6814    0.2794 H   0  0  0  0  0  0  0  0  0  0  0  0
   -3.2226    0.1917   -1.0382 H   0  0  0  0  0  0  0  0  0  0  0  0
  1  2  1  0  0  0  0
  2  3  1  0  0  0  0
  2  4  1  0  0  0  0
  4  5  1  0  0  0  0
  4  6  1  0  0  0  0
  6  7  1  0  0  0  0
  6  8  1  0  0  0  0
  8  9  1  0  0  0  0
  8 10  1  0  0  0  0
 10 11  1  0  0  0  0
  2 12  1  0  0  0  0
 10 12  1  0  0  0  0
 10 13  1  0  0  0  0
  8 14  1  0  0  0  0
  6 15  1  0  0  0  0
  4 16  1  0  0  0  0
  1 17  1  0  0  0  0
  1 18  1  0  0  0  0
  1 19  1  0  0  0  0
 13 20  1  0  0  0  0
 14 21  1  0  0  0  0
 15 22  1  0  0  0  0
 16 23  1  0  0  0  0
 17 24  1  0  0  0  0
M  END
