 xtb: 6.7.1 (edcfbbe)
          04032521513D

 18 18  0     0  0            999 V2000
   -1.8132   -1.4609   -0.0001 C   0  0  0  0  0  0  0  0  0  0  0  0
   -0.5231   -0.6994    0.0000 C   0  0  0  0  0  0  0  0  0  0  0  0
    0.6892   -1.3754    0.0001 C   0  0  0  0  0  0  0  0  0  0  0  0
    1.8922   -0.6915    0.0000 C   0  0  0  0  0  0  0  0  0  0  0  0
    1.8922    0.6915   -0.0001 C   0  0  0  0  0  0  0  0  0  0  0  0
    0.6892    1.3754   -0.0000 C   0  0  0  0  0  0  0  0  0  0  0  0
   -0.5231    0.6994    0.0001 C   0  0  0  0  0  0  0  0  0  0  0  0
   -1.8132    1.4609    0.0000 C   0  0  0  0  0  0  0  0  0  0  0  0
   -1.6270   -2.5315   -0.0002 H   0  0  0  0  0  0  0  0  0  0  0  0
   -2.4049   -1.2104    0.8793 H   0  0  0  0  0  0  0  0  0  0  0  0
   -2.4047   -1.2102   -0.8795 H   0  0  0  0  0  0  0  0  0  0  0  0
    0.6913   -2.4565    0.0001 H   0  0  0  0  0  0  0  0  0  0  0  0
    2.8245   -1.2368    0.0001 H   0  0  0  0  0  0  0  0  0  0  0  0
    2.8245    1.2368   -0.0002 H   0  0  0  0  0  0  0  0  0  0  0  0
    0.6913    2.4565   -0.0001 H   0  0  0  0  0  0  0  0  0  0  0  0
   -2.4053    1.2095    0.8789 H   0  0  0  0  0  0  0  0  0  0  0  0
   -1.6270    2.5315    0.0011 H   0  0  0  0  0  0  0  0  0  0  0  0
   -2.4044    1.2111   -0.8799 H   0  0  0  0  0  0  0  0  0  0  0  0
  1  2  1  0  0  0  0
  2  3  4  0  0  0  0
  3  4  4  0  0  0  0
  4  5  4  0  0  0  0
  5  6  4  0  0  0  0
  2  7  4  0  0  0  0
  6  7  4  0  0  0  0
  7  8  1  0  0  0  0
  1  9  1  0  0  0  0
  1 10  1  0  0  0  0
  1 11  1  0  0  0  0
  3 12  1  0  0  0  0
  4 13  1  0  0  0  0
  5 14  1  0  0  0  0
  6 15  1  0  0  0  0
  8 16  1  0  0  0  0
  8 17  1  0  0  0  0
  8 18  1  0  0  0  0
M  END
