 xtb: 6.7.1 (edcfbbe)
          04042521073D

 15 14  0     0  0            999 V2000
   -1.5503    0.9166   -0.2556 C   0  0  0  0  0  0  0  0  0  0  0  0
   -1.3273   -0.5084    0.2356 C   0  0  0  0  0  0  0  0  0  0  0  0
    0.0808   -1.0024    0.4084 C   0  0  0  0  0  0  0  0  0  0  0  0
    1.2654   -0.4711    0.1415 C   0  0  0  0  0  0  0  0  0  0  0  0
    1.6235    0.8546   -0.4546 C   0  0  0  0  0  0  0  0  0  0  0  0
   -2.6099    1.1564   -0.1885 H   0  0  0  0  0  0  0  0  0  0  0  0
   -1.2505    1.0266   -1.2940 H   0  0  0  0  0  0  0  0  0  0  0  0
   -1.0008    1.6273    0.3547 H   0  0  0  0  0  0  0  0  0  0  0  0
   -1.8149   -0.6185    1.2105 H   0  0  0  0  0  0  0  0  0  0  0  0
   -1.8371   -1.2017   -0.4425 H   0  0  0  0  0  0  0  0  0  0  0  0
    0.0885   -1.9943    0.8503 H   0  0  0  0  0  0  0  0  0  0  0  0
    2.1316   -1.0671    0.4075 H   0  0  0  0  0  0  0  0  0  0  0  0
    1.7578    1.5943    0.3354 H   0  0  0  0  0  0  0  0  0  0  0  0
    0.8699    1.2190   -1.1416 H   0  0  0  0  0  0  0  0  0  0  0  0
    2.5675    0.7689   -0.9890 H   0  0  0  0  0  0  0  0  0  0  0  0
  1  2  1  0  0  0  0
  2  3  1  0  0  0  0
  3  4  2  0  0  0  0
  4  5  1  0  0  0  0
  1  6  1  0  0  0  0
  1  7  1  0  0  0  0
  1  8  1  0  0  0  0
  2  9  1  0  0  0  0
  2 10  1  0  0  0  0
  3 11  1  0  0  0  0
  4 12  1  0  0  0  0
  5 13  1  0  0  0  0
  5 14  1  0  0  0  0
  5 15  1  0  0  0  0
M  END
