 xtb: 6.7.1 (edcfbbe)
          04032521003D

 25 25  0     0  0            999 V2000
   -2.5295   -1.3814   -0.4208 C   0  0  0  0  0  0  0  0  0  0  0  0
   -1.9673   -0.0202    0.0093 C   0  0  0  0  0  0  0  0  0  0  0  0
   -2.4190    1.0521   -0.9934 C   0  0  0  0  0  0  0  0  0  0  0  0
   -2.5446    0.3096    1.3920 C   0  0  0  0  0  0  0  0  0  0  0  0
   -0.4454   -0.0285    0.0261 C   0  0  0  0  0  0  0  0  0  0  0  0
    0.2836   -0.8013   -0.8738 C   0  0  0  0  0  0  0  0  0  0  0  0
    1.6640   -0.7867   -0.8929 C   0  0  0  0  0  0  0  0  0  0  0  0
    2.3686    0.0179   -0.0052 C   0  0  0  0  0  0  0  0  0  0  0  0
    1.6589    0.8060    0.8895 C   0  0  0  0  0  0  0  0  0  0  0  0
    0.2759    0.7801    0.8970 C   0  0  0  0  0  0  0  0  0  0  0  0
    3.7310    0.0020   -0.0541 O   0  0  0  0  0  0  0  0  0  0  0  0
   -2.1027   -2.1783    0.1839 H   0  0  0  0  0  0  0  0  0  0  0  0
   -3.6093   -1.3906   -0.2908 H   0  0  0  0  0  0  0  0  0  0  0  0
   -2.3239   -1.5868   -1.4674 H   0  0  0  0  0  0  0  0  0  0  0  0
   -2.0472    2.0303   -0.6965 H   0  0  0  0  0  0  0  0  0  0  0  0
   -2.0352    0.8292   -1.9864 H   0  0  0  0  0  0  0  0  0  0  0  0
   -3.5048    1.0912   -1.0398 H   0  0  0  0  0  0  0  0  0  0  0  0
   -2.3477    1.3405    1.6720 H   0  0  0  0  0  0  0  0  0  0  0  0
   -3.6236    0.1733    1.3810 H   0  0  0  0  0  0  0  0  0  0  0  0
   -2.1224   -0.3482    2.1482 H   0  0  0  0  0  0  0  0  0  0  0  0
   -0.2218   -1.4353   -1.5837 H   0  0  0  0  0  0  0  0  0  0  0  0
    2.2158   -1.3943   -1.5933 H   0  0  0  0  0  0  0  0  0  0  0  0
    2.1855    1.4452    1.5843 H   0  0  0  0  0  0  0  0  0  0  0  0
   -0.2343    1.4119    1.6056 H   0  0  0  0  0  0  0  0  0  0  0  0
    4.0989    0.6034    0.6105 H   0  0  0  0  0  0  0  0  0  0  0  0
  1  2  1  0  0  0  0
  2  3  1  0  0  0  0
  2  4  1  0  0  0  0
  2  5  1  0  0  0  0
  5  6  4  0  0  0  0
  6  7  4  0  0  0  0
  7  8  4  0  0  0  0
  8  9  4  0  0  0  0
  5 10  4  0  0  0  0
  9 10  4  0  0  0  0
  8 11  1  0  0  0  0
  1 12  1  0  0  0  0
  1 13  1  0  0  0  0
  1 14  1  0  0  0  0
  3 15  1  0  0  0  0
  3 16  1  0  0  0  0
  3 17  1  0  0  0  0
  4 18  1  0  0  0  0
  4 19  1  0  0  0  0
  4 20  1  0  0  0  0
  6 21  1  0  0  0  0
  7 22  1  0  0  0  0
  9 23  1  0  0  0  0
 10 24  1  0  0  0  0
 11 25  1  0  0  0  0
M  END
