 xtb: 6.7.1 (edcfbbe)
          04042519493D

 14 13  0     0  0            999 V2000
   -2.5371    0.4655   -0.4504 C   0  0  0  0  0  0  0  0  0  0  0  0
   -1.3955   -0.1817    0.3115 C   0  0  0  0  0  0  0  0  0  0  0  0
   -0.1763    0.4972   -0.0325 O   0  0  0  0  0  0  0  0  0  0  0  0
    0.9705   -0.1614    0.0651 C   0  0  0  0  0  0  0  0  0  0  0  0
    1.0483   -1.3168    0.4328 O   0  0  0  0  0  0  0  0  0  0  0  0
    2.1362    0.6978   -0.3219 C   0  0  0  0  0  0  0  0  0  0  0  0
   -2.3793    0.3652   -1.5204 H   0  0  0  0  0  0  0  0  0  0  0  0
   -3.4692   -0.0194   -0.1799 H   0  0  0  0  0  0  0  0  0  0  0  0
   -2.5955    1.5210   -0.2021 H   0  0  0  0  0  0  0  0  0  0  0  0
   -1.2847   -1.2422    0.0626 H   0  0  0  0  0  0  0  0  0  0  0  0
   -1.5369   -0.0910    1.3931 H   0  0  0  0  0  0  0  0  0  0  0  0
    2.6087    1.0647    0.5868 H   0  0  0  0  0  0  0  0  0  0  0  0
    1.7950    1.5392   -0.9150 H   0  0  0  0  0  0  0  0  0  0  0  0
    2.8626    0.1003   -0.8642 H   0  0  0  0  0  0  0  0  0  0  0  0
  1  2  1  0  0  0  0
  2  3  1  0  0  0  0
  3  4  1  0  0  0  0
  4  5  2  0  0  0  0
  4  6  1  0  0  0  0
  1  7  1  0  0  0  0
  1  8  1  0  0  0  0
  1  9  1  0  0  0  0
  2 10  1  0  0  0  0
  2 11  1  0  0  0  0
  6 12  1  0  0  0  0
  6 13  1  0  0  0  0
  6 14  1  0  0  0  0
M  END
