 xtb: 6.7.1 (edcfbbe)
          04062505073D

 29 29  0     0  0            999 V2000
   -3.6944   -0.1509    0.3011 C   0  0  0  0  0  0  0  0  0  0  0  0
   -2.2609   -0.1113   -0.2189 C   0  0  0  0  0  0  0  0  0  0  0  0
   -2.2808    0.0684   -1.3000 H   0  0  0  0  0  0  0  0  0  0  0  0
   -1.5315   -1.4254    0.0495 C   0  0  0  0  0  0  0  0  0  0  0  0
   -0.0864   -1.3751   -0.4361 C   0  0  0  0  0  0  0  0  0  0  0  0
    0.6908   -0.2337    0.2486 C   0  0  0  0  0  0  0  0  0  0  0  0
    0.6385   -0.3914    1.3305 H   0  0  0  0  0  0  0  0  0  0  0  0
   -0.0731    1.0278   -0.0864 C   0  0  0  0  0  0  0  0  0  0  0  0
    0.3639    1.9180   -0.7899 O   0  0  0  0  0  0  0  0  0  0  0  0
   -1.4809    1.0394    0.4412 C   0  0  0  0  0  0  0  0  0  0  0  0
    2.1673   -0.1383   -0.1702 C   0  0  0  0  0  0  0  0  0  0  0  0
    2.8809    0.8900    0.7094 C   0  0  0  0  0  0  0  0  0  0  0  0
    2.8908   -1.4801   -0.0727 C   0  0  0  0  0  0  0  0  0  0  0  0
   -3.7041   -0.3293    1.3737 H   0  0  0  0  0  0  0  0  0  0  0  0
   -4.1994    0.7910    0.1032 H   0  0  0  0  0  0  0  0  0  0  0  0
   -4.2496   -0.9478   -0.1868 H   0  0  0  0  0  0  0  0  0  0  0  0
   -1.5478   -1.6332    1.1214 H   0  0  0  0  0  0  0  0  0  0  0  0
   -2.0523   -2.2393   -0.4575 H   0  0  0  0  0  0  0  0  0  0  0  0
    0.3982   -2.3246   -0.2141 H   0  0  0  0  0  0  0  0  0  0  0  0
   -0.0603   -1.2224   -1.5178 H   0  0  0  0  0  0  0  0  0  0  0  0
   -1.4722    0.8921    1.5216 H   0  0  0  0  0  0  0  0  0  0  0  0
   -1.9477    1.9983    0.2115 H   0  0  0  0  0  0  0  0  0  0  0  0
    2.2018    0.2135   -1.2075 H   0  0  0  0  0  0  0  0  0  0  0  0
    3.9155    1.0025    0.3952 H   0  0  0  0  0  0  0  0  0  0  0  0
    2.8695    0.5724    1.7502 H   0  0  0  0  0  0  0  0  0  0  0  0
    2.3975    1.8610    0.6344 H   0  0  0  0  0  0  0  0  0  0  0  0
    3.9551   -1.3324   -0.2380 H   0  0  0  0  0  0  0  0  0  0  0  0
    2.5320   -2.1823   -0.8193 H   0  0  0  0  0  0  0  0  0  0  0  0
    2.7564   -1.9132    0.9160 H   0  0  0  0  0  0  0  0  0  0  0  0
  1  2  1  0  0  0  0
  2  3  1  0  0  0  0
  2  4  1  0  0  0  0
  4  5  1  0  0  0  0
  5  6  1  0  0  0  0
  6  7  1  0  0  0  0
  6  8  1  0  0  0  0
  8  9  2  0  0  0  0
  2 10  1  0  0  0  0
  8 10  1  0  0  0  0
  6 11  1  0  0  0  0
 11 12  1  0  0  0  0
 11 13  1  0  0  0  0
  1 14  1  0  0  0  0
  1 15  1  0  0  0  0
  1 16  1  0  0  0  0
  4 17  1  0  0  0  0
  4 18  1  0  0  0  0
  5 19  1  0  0  0  0
  5 20  1  0  0  0  0
 10 21  1  0  0  0  0
 10 22  1  0  0  0  0
 11 23  1  0  0  0  0
 12 24  1  0  0  0  0
 12 25  1  0  0  0  0
 12 26  1  0  0  0  0
 13 27  1  0  0  0  0
 13 28  1  0  0  0  0
 13 29  1  0  0  0  0
M  END
