 xtb: 6.7.1 (edcfbbe)
          04062518003D

 24 24  0     0  0            999 V2000
   -2.3096   -0.8834    0.7260 C   0  0  0  0  0  0  0  0  0  0  0  0
   -0.8589   -0.3836    0.7379 C   0  0  0  0  0  0  0  0  0  0  0  0
   -0.5723   -0.1422    1.7705 H   0  0  0  0  0  0  0  0  0  0  0  0
   -0.6659    0.8681   -0.1309 C   0  0  0  0  0  0  0  0  0  0  0  0
   -0.9510    0.6234   -1.1638 H   0  0  0  0  0  0  0  0  0  0  0  0
    0.8145    1.2933   -0.1365 C   0  0  0  0  0  0  0  0  0  0  0  0
    0.8995    2.1530    0.5384 H   0  0  0  0  0  0  0  0  0  0  0  0
    1.7457    0.1799    0.3909 C   0  0  0  0  0  0  0  0  0  0  0  0
    2.7476    0.3474   -0.0325 H   0  0  0  0  0  0  0  0  0  0  0  0
    1.2540   -1.1738   -0.1477 C   0  0  0  0  0  0  0  0  0  0  0  0
    1.8629   -2.0034    0.2389 H   0  0  0  0  0  0  0  0  0  0  0  0
   -0.0672   -1.4657    0.2510 O   0  0  0  0  0  0  0  0  0  0  0  0
    1.3958   -1.2325   -1.5326 O   0  0  0  0  0  0  0  0  0  0  0  0
    1.7792    0.2429    1.7919 O   0  0  0  0  0  0  0  0  0  0  0  0
    1.1506    1.6271   -1.4649 O   0  0  0  0  0  0  0  0  0  0  0  0
   -1.4158    1.9588    0.3440 O   0  0  0  0  0  0  0  0  0  0  0  0
   -2.7981   -1.0934   -0.5746 O   0  0  0  0  0  0  0  0  0  0  0  0
   -2.9567   -0.1380    1.1896 H   0  0  0  0  0  0  0  0  0  0  0  0
   -2.3525   -1.8082    1.3126 H   0  0  0  0  0  0  0  0  0  0  0  0
    1.1252   -0.3889   -1.9392 H   0  0  0  0  0  0  0  0  0  0  0  0
    2.4445   -0.3696    2.1380 H   0  0  0  0  0  0  0  0  0  0  0  0
    1.8894    2.2511   -1.4845 H   0  0  0  0  0  0  0  0  0  0  0  0
   -2.3404    1.8547    0.0805 H   0  0  0  0  0  0  0  0  0  0  0  0
   -2.2613   -1.7837   -0.9897 H   0  0  0  0  0  0  0  0  0  0  0  0
  1  2  1  0  0  0  0
  2  3  1  0  0  0  0
  2  4  1  0  0  0  0
  4  5  1  0  0  0  0
  4  6  1  0  0  0  0
  6  7  1  0  0  0  0
  6  8  1  0  0  0  0
  8  9  1  0  0  0  0
  8 10  1  0  0  0  0
 10 11  1  0  0  0  0
  2 12  1  0  0  0  0
 10 12  1  0  0  0  0
 10 13  1  0  0  0  0
  8 14  1  0  0  0  0
  6 15  1  0  0  0  0
  4 16  1  0  0  0  0
  1 17  1  0  0  0  0
  1 18  1  0  0  0  0
  1 19  1  0  0  0  0
 13 20  1  0  0  0  0
 14 21  1  0  0  0  0
 15 22  1  0  0  0  0
 16 23  1  0  0  0  0
 17 24  1  0  0  0  0
M  END
