 xtb: 6.7.1 (edcfbbe)
          04052503223D

 18 17  0     0  0            999 V2000
    1.9098   -0.4062    0.9831 C   0  0  0  0  0  0  0  0  0  0  0  0
    1.1133   -0.3592   -0.3152 C   0  0  0  0  0  0  0  0  0  0  0  0
   -0.3574    0.0805   -0.1721 C   0  0  0  0  0  0  0  0  0  0  0  0
   -0.4636    1.5228    0.3353 C   0  0  0  0  0  0  0  0  0  0  0  0
   -1.1420   -0.8612    0.7427 C   0  0  0  0  0  0  0  0  0  0  0  0
   -0.9857   -0.0239   -1.4522 O   0  0  0  0  0  0  0  0  0  0  0  0
    1.9438    0.5711    1.4562 H   0  0  0  0  0  0  0  0  0  0  0  0
    2.9304   -0.7155    0.7702 H   0  0  0  0  0  0  0  0  0  0  0  0
    1.4792   -1.1187    1.6805 H   0  0  0  0  0  0  0  0  0  0  0  0
    1.1156   -1.3497   -0.7772 H   0  0  0  0  0  0  0  0  0  0  0  0
    1.6080    0.3277   -1.0080 H   0  0  0  0  0  0  0  0  0  0  0  0
   -0.1376    1.5896    1.3681 H   0  0  0  0  0  0  0  0  0  0  0  0
    0.1479    2.1887   -0.2701 H   0  0  0  0  0  0  0  0  0  0  0  0
   -1.4992    1.8498    0.2770 H   0  0  0  0  0  0  0  0  0  0  0  0
   -1.0233   -1.8876    0.4061 H   0  0  0  0  0  0  0  0  0  0  0  0
   -0.8033   -0.7732    1.7691 H   0  0  0  0  0  0  0  0  0  0  0  0
   -2.1972   -0.6055    0.6930 H   0  0  0  0  0  0  0  0  0  0  0  0
   -0.5505    0.5806   -2.0679 H   0  0  0  0  0  0  0  0  0  0  0  0
  1  2  1  0  0  0  0
  2  3  1  0  0  0  0
  3  4  1  0  0  0  0
  3  5  1  0  0  0  0
  3  6  1  0  0  0  0
  1  7  1  0  0  0  0
  1  8  1  0  0  0  0
  1  9  1  0  0  0  0
  2 10  1  0  0  0  0
  2 11  1  0  0  0  0
  4 12  1  0  0  0  0
  4 13  1  0  0  0  0
  4 14  1  0  0  0  0
  5 15  1  0  0  0  0
  5 16  1  0  0  0  0
  5 17  1  0  0  0  0
  6 18  1  0  0  0  0
M  END
