 xtb: 6.7.1 (edcfbbe)
          04042518453D

 14 14  0     0  0            999 V2000
    1.4337    0.9386   -0.2717 C   0  0  0  0  0  0  0  0  0  0  0  0
    0.7610   -0.3636    0.0558 C   0  0  0  0  0  0  0  0  0  0  0  0
    1.4067   -1.3894    0.2248 O   0  0  0  0  0  0  0  0  0  0  0  0
   -0.7059   -0.3786    0.2021 C   0  0  0  0  0  0  0  0  0  0  0  0
   -1.4894    0.8541    0.5929 C   0  0  0  0  0  0  0  0  0  0  0  0
   -1.6086    0.3300   -0.7891 C   0  0  0  0  0  0  0  0  0  0  0  0
    1.4749    1.5400    0.6347 H   0  0  0  0  0  0  0  0  0  0  0  0
    2.4505    0.7459   -0.6030 H   0  0  0  0  0  0  0  0  0  0  0  0
    0.8905    1.4926   -1.0296 H   0  0  0  0  0  0  0  0  0  0  0  0
   -1.0613   -1.3330    0.5738 H   0  0  0  0  0  0  0  0  0  0  0  0
   -2.3111    0.7071    1.2758 H   0  0  0  0  0  0  0  0  0  0  0  0
   -0.9429    1.7688    0.7531 H   0  0  0  0  0  0  0  0  0  0  0  0
   -2.5093   -0.1901   -1.0747 H   0  0  0  0  0  0  0  0  0  0  0  0
   -1.1452    0.8723   -1.5975 H   0  0  0  0  0  0  0  0  0  0  0  0
  1  2  1  0  0  0  0
  2  3  2  0  0  0  0
  2  4  1  0  0  0  0
  4  5  1  0  0  0  0
  4  6  1  0  0  0  0
  5  6  1  0  0  0  0
  1  7  1  0  0  0  0
  1  8  1  0  0  0  0
  1  9  1  0  0  0  0
  4 10  1  0  0  0  0
  5 11  1  0  0  0  0
  5 12  1  0  0  0  0
  6 13  1  0  0  0  0
  6 14  1  0  0  0  0
M  END
