 xtb: 6.7.1 (edcfbbe)
          04062518003D

 24 24  0     0  0            999 V2000
   -2.3624   -1.0092    0.3679 C   0  0  0  0  0  0  0  0  0  0  0  0
   -1.0894   -0.2521    0.7956 C   0  0  0  0  0  0  0  0  0  0  0  0
   -1.3129    0.2256    1.7578 H   0  0  0  0  0  0  0  0  0  0  0  0
   -0.6754    0.8501   -0.1855 C   0  0  0  0  0  0  0  0  0  0  0  0
   -0.6787    0.4702   -1.2191 H   0  0  0  0  0  0  0  0  0  0  0  0
    0.7578    1.2913    0.1671 C   0  0  0  0  0  0  0  0  0  0  0  0
    0.7807    1.5602    1.2306 H   0  0  0  0  0  0  0  0  0  0  0  0
    1.7340    0.1297   -0.0855 C   0  0  0  0  0  0  0  0  0  0  0  0
    2.0874    0.1613   -1.1221 H   0  0  0  0  0  0  0  0  0  0  0  0
    0.9924   -1.2204    0.0853 C   0  0  0  0  0  0  0  0  0  0  0  0
    1.7000   -1.9656    0.4855 H   0  0  0  0  0  0  0  0  0  0  0  0
   -0.0163   -1.1605    1.0554 O   0  0  0  0  0  0  0  0  0  0  0  0
    0.5282   -1.6059   -1.1703 O   0  0  0  0  0  0  0  0  0  0  0  0
    2.8901    0.2066    0.7021 O   0  0  0  0  0  0  0  0  0  0  0  0
    1.0932    2.4744   -0.5125 O   0  0  0  0  0  0  0  0  0  0  0  0
   -1.5815    1.9179   -0.0679 O   0  0  0  0  0  0  0  0  0  0  0  0
   -2.2505   -1.6905   -0.8588 O   0  0  0  0  0  0  0  0  0  0  0  0
   -3.1877   -0.2918    0.3539 H   0  0  0  0  0  0  0  0  0  0  0  0
   -2.5602   -1.7767    1.1196 H   0  0  0  0  0  0  0  0  0  0  0  0
   -0.2011   -2.2460   -1.0702 H   0  0  0  0  0  0  0  0  0  0  0  0
    2.6570    0.1690    1.6412 H   0  0  0  0  0  0  0  0  0  0  0  0
    1.3225    2.2784   -1.4327 H   0  0  0  0  0  0  0  0  0  0  0  0
   -1.1038    2.7389   -0.2749 H   0  0  0  0  0  0  0  0  0  0  0  0
   -2.3688   -1.0681   -1.5889 H   0  0  0  0  0  0  0  0  0  0  0  0
  1  2  1  0  0  0  0
  2  3  1  0  0  0  0
  2  4  1  0  0  0  0
  4  5  1  0  0  0  0
  4  6  1  0  0  0  0
  6  7  1  0  0  0  0
  6  8  1  0  0  0  0
  8  9  1  0  0  0  0
  8 10  1  0  0  0  0
 10 11  1  0  0  0  0
  2 12  1  0  0  0  0
 10 12  1  0  0  0  0
 10 13  1  0  0  0  0
  8 14  1  0  0  0  0
  6 15  1  0  0  0  0
  4 16  1  0  0  0  0
  1 17  1  0  0  0  0
  1 18  1  0  0  0  0
  1 19  1  0  0  0  0
 13 20  1  0  0  0  0
 14 21  1  0  0  0  0
 15 22  1  0  0  0  0
 16 23  1  0  0  0  0
 17 24  1  0  0  0  0
M  END
