 xtb: 6.7.1 (edcfbbe)
          04052518533D

 23 23  0     0  0            999 V2000
   -2.5131    0.9597    0.0696 C   0  0  0  0  0  0  0  0  0  0  0  0
   -1.4277   -0.0582   -0.1468 C   0  0  0  0  0  0  0  0  0  0  0  0
   -1.4449   -0.8034   -1.1068 O   0  0  0  0  0  0  0  0  0  0  0  0
   -0.3516   -0.1066    0.9226 C   0  0  0  0  0  0  0  0  0  0  0  0
    0.5003    1.1711    0.8605 C   0  0  0  0  0  0  0  0  0  0  0  0
    1.2335    1.2898   -0.4783 C   0  0  0  0  0  0  0  0  0  0  0  0
    1.7243   -0.0752   -0.9811 C   0  0  0  0  0  0  0  0  0  0  0  0
    1.9028   -1.0429    0.1829 C   0  0  0  0  0  0  0  0  0  0  0  0
    0.5406   -1.3545    0.8066 C   0  0  0  0  0  0  0  0  0  0  0  0
   -2.6383    1.5530   -0.8334 H   0  0  0  0  0  0  0  0  0  0  0  0
   -3.4474    0.4243    0.2306 H   0  0  0  0  0  0  0  0  0  0  0  0
   -2.3161    1.6026    0.9193 H   0  0  0  0  0  0  0  0  0  0  0  0
   -0.8802   -0.1170    1.8814 H   0  0  0  0  0  0  0  0  0  0  0  0
   -0.1183    2.0545    1.0170 H   0  0  0  0  0  0  0  0  0  0  0  0
    1.2226    1.1267    1.6761 H   0  0  0  0  0  0  0  0  0  0  0  0
    0.5679    1.7277   -1.2250 H   0  0  0  0  0  0  0  0  0  0  0  0
    2.0785    1.9691   -0.3539 H   0  0  0  0  0  0  0  0  0  0  0  0
    0.9922   -0.5016   -1.6700 H   0  0  0  0  0  0  0  0  0  0  0  0
    2.6618    0.0417   -1.5266 H   0  0  0  0  0  0  0  0  0  0  0  0
    2.3591   -1.9699   -0.1673 H   0  0  0  0  0  0  0  0  0  0  0  0
    2.5730   -0.6044    0.9241 H   0  0  0  0  0  0  0  0  0  0  0  0
    0.0242   -2.0837    0.1774 H   0  0  0  0  0  0  0  0  0  0  0  0
    0.6829   -1.8028    1.7906 H   0  0  0  0  0  0  0  0  0  0  0  0
  1  2  1  0  0  0  0
  2  3  2  0  0  0  0
  2  4  1  0  0  0  0
  4  5  1  0  0  0  0
  5  6  1  0  0  0  0
  6  7  1  0  0  0  0
  7  8  1  0  0  0  0
  4  9  1  0  0  0  0
  8  9  1  0  0  0  0
  1 10  1  0  0  0  0
  1 11  1  0  0  0  0
  1 12  1  0  0  0  0
  4 13  1  0  0  0  0
  5 14  1  0  0  0  0
  5 15  1  0  0  0  0
  6 16  1  0  0  0  0
  6 17  1  0  0  0  0
  7 18  1  0  0  0  0
  7 19  1  0  0  0  0
  8 20  1  0  0  0  0
  8 21  1  0  0  0  0
  9 22  1  0  0  0  0
  9 23  1  0  0  0  0
M  END
