 xtb: 6.7.1 (edcfbbe)
          04062518003D

 24 24  0     0  0            999 V2000
   -2.4675   -1.1084    0.3452 C   0  0  0  0  0  0  0  0  0  0  0  0
   -1.0441   -0.5728    0.5715 C   0  0  0  0  0  0  0  0  0  0  0  0
   -0.8547   -0.4806    1.6529 H   0  0  0  0  0  0  0  0  0  0  0  0
   -0.8155    0.7975   -0.0879 C   0  0  0  0  0  0  0  0  0  0  0  0
   -0.9214    0.6770   -1.1744 H   0  0  0  0  0  0  0  0  0  0  0  0
    0.6148    1.2464    0.2194 C   0  0  0  0  0  0  0  0  0  0  0  0
    0.7129    1.3799    1.3095 H   0  0  0  0  0  0  0  0  0  0  0  0
    1.6213    0.1839   -0.2376 C   0  0  0  0  0  0  0  0  0  0  0  0
    1.6296    0.1503   -1.3365 H   0  0  0  0  0  0  0  0  0  0  0  0
    1.2214   -1.2088    0.2728 C   0  0  0  0  0  0  0  0  0  0  0  0
    1.4054   -1.2295    1.3684 H   0  0  0  0  0  0  0  0  0  0  0  0
   -0.1338   -1.5093    0.0249 O   0  0  0  0  0  0  0  0  0  0  0  0
    1.9843   -2.1475   -0.3855 O   0  0  0  0  0  0  0  0  0  0  0  0
    2.9028    0.4575    0.2628 O   0  0  0  0  0  0  0  0  0  0  0  0
    0.9380    2.4457   -0.4402 O   0  0  0  0  0  0  0  0  0  0  0  0
   -1.6894    1.7848    0.3967 O   0  0  0  0  0  0  0  0  0  0  0  0
   -3.0461   -0.4965   -0.7859 O   0  0  0  0  0  0  0  0  0  0  0  0
   -3.0725   -0.8969    1.2350 H   0  0  0  0  0  0  0  0  0  0  0  0
   -2.3815   -2.1908    0.2124 H   0  0  0  0  0  0  0  0  0  0  0  0
    1.6744   -3.0386   -0.1565 H   0  0  0  0  0  0  0  0  0  0  0  0
    3.1689    1.3349   -0.0540 H   0  0  0  0  0  0  0  0  0  0  0  0
    0.2395    3.0910   -0.2525 H   0  0  0  0  0  0  0  0  0  0  0  0
   -2.5760    1.5994    0.0513 H   0  0  0  0  0  0  0  0  0  0  0  0
   -3.8343   -0.9914   -1.0491 H   0  0  0  0  0  0  0  0  0  0  0  0
  1  2  1  0  0  0  0
  2  3  1  0  0  0  0
  2  4  1  0  0  0  0
  4  5  1  0  0  0  0
  4  6  1  0  0  0  0
  6  7  1  0  0  0  0
  6  8  1  0  0  0  0
  8  9  1  0  0  0  0
  8 10  1  0  0  0  0
 10 11  1  0  0  0  0
  2 12  1  0  0  0  0
 10 12  1  0  0  0  0
 10 13  1  0  0  0  0
  8 14  1  0  0  0  0
  6 15  1  0  0  0  0
  4 16  1  0  0  0  0
  1 17  1  0  0  0  0
  1 18  1  0  0  0  0
  1 19  1  0  0  0  0
 13 20  1  0  0  0  0
 14 21  1  0  0  0  0
 15 22  1  0  0  0  0
 16 23  1  0  0  0  0
 17 24  1  0  0  0  0
M  END
