 xtb: 6.7.1 (edcfbbe)
          04052518533D

 23 23  0     0  0            999 V2000
   -2.7132    0.8923    0.1123 C   0  0  0  0  0  0  0  0  0  0  0  0
   -1.6567   -0.1673   -0.0201 C   0  0  0  0  0  0  0  0  0  0  0  0
   -1.8392   -1.1808   -0.6656 O   0  0  0  0  0  0  0  0  0  0  0  0
   -0.3463    0.1313    0.6831 C   0  0  0  0  0  0  0  0  0  0  0  0
    0.3448    1.2988   -0.0559 C   0  0  0  0  0  0  0  0  0  0  0  0
    1.8464    1.2644    0.2058 C   0  0  0  0  0  0  0  0  0  0  0  0
    2.4789    0.0275   -0.4427 C   0  0  0  0  0  0  0  0  0  0  0  0
    1.4973   -1.1502   -0.4676 C   0  0  0  0  0  0  0  0  0  0  0  0
    0.5666   -1.1028    0.7390 C   0  0  0  0  0  0  0  0  0  0  0  0
   -3.6422    0.5473   -0.3332 H   0  0  0  0  0  0  0  0  0  0  0  0
   -2.8698    1.1374    1.1587 H   0  0  0  0  0  0  0  0  0  0  0  0
   -2.3847    1.7933   -0.3998 H   0  0  0  0  0  0  0  0  0  0  0  0
   -0.5796    0.4524    1.7020 H   0  0  0  0  0  0  0  0  0  0  0  0
    0.1696    1.2146   -1.1305 H   0  0  0  0  0  0  0  0  0  0  0  0
   -0.0727    2.2467    0.2828 H   0  0  0  0  0  0  0  0  0  0  0  0
    2.3108    2.1684   -0.1902 H   0  0  0  0  0  0  0  0  0  0  0  0
    2.0153    1.2511    1.2835 H   0  0  0  0  0  0  0  0  0  0  0  0
    2.7851    0.2582   -1.4644 H   0  0  0  0  0  0  0  0  0  0  0  0
    3.3759   -0.2503    0.1128 H   0  0  0  0  0  0  0  0  0  0  0  0
    0.8890   -1.1230   -1.3737 H   0  0  0  0  0  0  0  0  0  0  0  0
    2.0468   -2.0926   -0.4756 H   0  0  0  0  0  0  0  0  0  0  0  0
   -0.0551   -2.0006    0.7562 H   0  0  0  0  0  0  0  0  0  0  0  0
    1.1610   -1.0856    1.6532 H   0  0  0  0  0  0  0  0  0  0  0  0
  1  2  1  0  0  0  0
  2  3  2  0  0  0  0
  2  4  1  0  0  0  0
  4  5  1  0  0  0  0
  5  6  1  0  0  0  0
  6  7  1  0  0  0  0
  7  8  1  0  0  0  0
  4  9  1  0  0  0  0
  8  9  1  0  0  0  0
  1 10  1  0  0  0  0
  1 11  1  0  0  0  0
  1 12  1  0  0  0  0
  4 13  1  0  0  0  0
  5 14  1  0  0  0  0
  5 15  1  0  0  0  0
  6 16  1  0  0  0  0
  6 17  1  0  0  0  0
  7 18  1  0  0  0  0
  7 19  1  0  0  0  0
  8 20  1  0  0  0  0
  8 21  1  0  0  0  0
  9 22  1  0  0  0  0
  9 23  1  0  0  0  0
M  END
