 xtb: 6.7.1 (edcfbbe)
          04042520213D

 15 14  0     0  0            999 V2000
    1.8850    0.9081   -0.2404 C   0  0  0  0  0  0  0  0  0  0  0  0
    0.9510   -0.0854    0.4371 C   0  0  0  0  0  0  0  0  0  0  0  0
   -0.3842   -0.2627   -0.2928 C   0  0  0  0  0  0  0  0  0  0  0  0
   -0.1799   -0.4477   -1.3613 H   0  0  0  0  0  0  0  0  0  0  0  0
   -1.2894    0.9597   -0.1590 C   0  0  0  0  0  0  0  0  0  0  0  0
   -0.9957   -1.4191    0.2636 O   0  0  0  0  0  0  0  0  0  0  0  0
    2.8396    0.9291    0.2782 H   0  0  0  0  0  0  0  0  0  0  0  0
    1.4678    1.9112   -0.2252 H   0  0  0  0  0  0  0  0  0  0  0  0
    2.0611    0.6213   -1.2745 H   0  0  0  0  0  0  0  0  0  0  0  0
    0.7471    0.2254    1.4632 H   0  0  0  0  0  0  0  0  0  0  0  0
    1.4264   -1.0675    0.4800 H   0  0  0  0  0  0  0  0  0  0  0  0
   -0.8030    1.8337   -0.5800 H   0  0  0  0  0  0  0  0  0  0  0  0
   -2.2263    0.8003   -0.6885 H   0  0  0  0  0  0  0  0  0  0  0  0
   -1.5066    1.1440    0.8906 H   0  0  0  0  0  0  0  0  0  0  0  0
   -1.8724   -1.5341   -0.1271 H   0  0  0  0  0  0  0  0  0  0  0  0
  1  2  1  0  0  0  0
  2  3  1  0  0  0  0
  3  4  1  0  0  0  0
  3  5  1  0  0  0  0
  3  6  1  0  0  0  0
  1  7  1  0  0  0  0
  1  8  1  0  0  0  0
  1  9  1  0  0  0  0
  2 10  1  0  0  0  0
  2 11  1  0  0  0  0
  5 12  1  0  0  0  0
  5 13  1  0  0  0  0
  5 14  1  0  0  0  0
  6 15  1  0  0  0  0
M  END
