 xtb: 6.7.1 (edcfbbe)
          04042520083D

 15 15  0     0  0            999 V2000
   -1.0120   -1.8043   -0.0000 C   0  0  0  0  0  0  0  0  0  0  0  0
    0.3583   -1.6171    0.0000 C   0  0  0  0  0  0  0  0  0  0  0  0
    0.8748   -0.3206   -0.0000 C   0  0  0  0  0  0  0  0  0  0  0  0
    0.0116    0.7776    0.0000 C   0  0  0  0  0  0  0  0  0  0  0  0
   -1.3615    0.5837    0.0001 C   0  0  0  0  0  0  0  0  0  0  0  0
   -1.8683   -0.7186   -0.0000 C   0  0  0  0  0  0  0  0  0  0  0  0
   -2.2447    1.6067   -0.0000 O   0  0  0  0  0  0  0  0  0  0  0  0
    2.3154   -0.1026    0.0000 C   0  0  0  0  0  0  0  0  0  0  0  0
    2.8671    0.9803   -0.0000 O   0  0  0  0  0  0  0  0  0  0  0  0
   -1.4208   -2.8021   -0.0001 H   0  0  0  0  0  0  0  0  0  0  0  0
    1.0299   -2.4609   -0.0001 H   0  0  0  0  0  0  0  0  0  0  0  0
    0.4434    1.7682    0.0000 H   0  0  0  0  0  0  0  0  0  0  0  0
   -2.9385   -0.8501   -0.0001 H   0  0  0  0  0  0  0  0  0  0  0  0
   -1.7885    2.4623   -0.0001 H   0  0  0  0  0  0  0  0  0  0  0  0
    2.9179   -1.0292   -0.0000 H   0  0  0  0  0  0  0  0  0  0  0  0
  1  2  4  0  0  0  0
  2  3  4  0  0  0  0
  3  4  4  0  0  0  0
  4  5  4  0  0  0  0
  1  6  4  0  0  0  0
  5  6  4  0  0  0  0
  5  7  1  0  0  0  0
  3  8  1  0  0  0  0
  8  9  2  0  0  0  0
  1 10  1  0  0  0  0
  2 11  1  0  0  0  0
  4 12  1  0  0  0  0
  6 13  1  0  0  0  0
  7 14  1  0  0  0  0
  8 15  1  0  0  0  0
M  END
