 xtb: 6.7.1 (edcfbbe)
          04062518003D

 24 24  0     0  0            999 V2000
   -1.9035   -0.5965   -0.8218 C   0  0  0  0  0  0  0  0  0  0  0  0
   -1.1941   -0.1210    0.4541 C   0  0  0  0  0  0  0  0  0  0  0  0
   -1.9223   -0.1123    1.2746 H   0  0  0  0  0  0  0  0  0  0  0  0
   -0.6212    1.3009    0.3232 C   0  0  0  0  0  0  0  0  0  0  0  0
   -1.3727    1.9189   -0.1805 H   0  0  0  0  0  0  0  0  0  0  0  0
    0.6834    1.3164   -0.4975 C   0  0  0  0  0  0  0  0  0  0  0  0
    1.1586    2.2966   -0.3389 H   0  0  0  0  0  0  0  0  0  0  0  0
    1.6666    0.2701    0.0509 C   0  0  0  0  0  0  0  0  0  0  0  0
    2.4683    0.1513   -0.6895 H   0  0  0  0  0  0  0  0  0  0  0  0
    1.0144   -1.1141    0.2285 C   0  0  0  0  0  0  0  0  0  0  0  0
    1.6412   -1.6995    0.9226 H   0  0  0  0  0  0  0  0  0  0  0  0
   -0.2234   -1.0747    0.8923 O   0  0  0  0  0  0  0  0  0  0  0  0
    0.9621   -1.7318   -1.0186 O   0  0  0  0  0  0  0  0  0  0  0  0
    2.1485    0.7608    1.2779 O   0  0  0  0  0  0  0  0  0  0  0  0
    0.4783    1.0683   -1.8629 O   0  0  0  0  0  0  0  0  0  0  0  0
   -0.4296    1.9008    1.5808 O   0  0  0  0  0  0  0  0  0  0  0  0
   -2.6800   -1.7480   -0.5781 O   0  0  0  0  0  0  0  0  0  0  0  0
   -1.1629   -0.7829   -1.6084 H   0  0  0  0  0  0  0  0  0  0  0  0
   -2.6034    0.1690   -1.1600 H   0  0  0  0  0  0  0  0  0  0  0  0
    0.7325   -2.6682   -0.9231 H   0  0  0  0  0  0  0  0  0  0  0  0
    2.9189    0.2519    1.5682 H   0  0  0  0  0  0  0  0  0  0  0  0
    0.0878    1.8486   -2.2809 H   0  0  0  0  0  0  0  0  0  0  0  0
    0.3576    1.5132    1.9985 H   0  0  0  0  0  0  0  0  0  0  0  0
   -2.1427   -2.3783   -0.0773 H   0  0  0  0  0  0  0  0  0  0  0  0
  1  2  1  0  0  0  0
  2  3  1  0  0  0  0
  2  4  1  0  0  0  0
  4  5  1  0  0  0  0
  4  6  1  0  0  0  0
  6  7  1  0  0  0  0
  6  8  1  0  0  0  0
  8  9  1  0  0  0  0
  8 10  1  0  0  0  0
 10 11  1  0  0  0  0
  2 12  1  0  0  0  0
 10 12  1  0  0  0  0
 10 13  1  0  0  0  0
  8 14  1  0  0  0  0
  6 15  1  0  0  0  0
  4 16  1  0  0  0  0
  1 17  1  0  0  0  0
  1 18  1  0  0  0  0
  1 19  1  0  0  0  0
 13 20  1  0  0  0  0
 14 21  1  0  0  0  0
 15 22  1  0  0  0  0
 16 23  1  0  0  0  0
 17 24  1  0  0  0  0
M  END
