 xtb: 6.7.1 (edcfbbe)
          04042518543D

 15 14  0     0  0            999 V2000
    1.1969   -1.2563    0.0383 C   0  0  0  0  0  0  0  0  0  0  0  0
    0.3998   -0.0001   -0.3207 C   0  0  0  0  0  0  0  0  0  0  0  0
    1.1959    1.2568    0.0383 C   0  0  0  0  0  0  0  0  0  0  0  0
   -0.9093   -0.0003    0.4106 C   0  0  0  0  0  0  0  0  0  0  0  0
   -2.0952   -0.0002   -0.1680 C   0  0  0  0  0  0  0  0  0  0  0  0
    0.6359   -2.1501   -0.2250 H   0  0  0  0  0  0  0  0  0  0  0  0
    1.4038   -1.2806    1.1060 H   0  0  0  0  0  0  0  0  0  0  0  0
    2.1430   -1.2693   -0.4975 H   0  0  0  0  0  0  0  0  0  0  0  0
    0.2051   -0.0002   -1.3983 H   0  0  0  0  0  0  0  0  0  0  0  0
    1.4034    1.2809    1.1059 H   0  0  0  0  0  0  0  0  0  0  0  0
    2.1417    1.2710   -0.4980 H   0  0  0  0  0  0  0  0  0  0  0  0
    0.6337    2.1501   -0.2242 H   0  0  0  0  0  0  0  0  0  0  0  0
   -0.8296   -0.0004    1.4903 H   0  0  0  0  0  0  0  0  0  0  0  0
   -3.0101   -0.0003    0.3999 H   0  0  0  0  0  0  0  0  0  0  0  0
   -2.2012    0.0000   -1.2408 H   0  0  0  0  0  0  0  0  0  0  0  0
  1  2  1  0  0  0  0
  2  3  1  0  0  0  0
  2  4  1  0  0  0  0
  4  5  2  0  0  0  0
  1  6  1  0  0  0  0
  1  7  1  0  0  0  0
  1  8  1  0  0  0  0
  2  9  1  0  0  0  0
  3 10  1  0  0  0  0
  3 11  1  0  0  0  0
  3 12  1  0  0  0  0
  4 13  1  0  0  0  0
  5 14  1  0  0  0  0
  5 15  1  0  0  0  0
M  END
