 xtb: 6.7.1 (edcfbbe)
          04062518003D

 24 24  0     0  0            999 V2000
   -2.5440   -0.6971   -0.3721 C   0  0  0  0  0  0  0  0  0  0  0  0
   -1.1696   -0.3347    0.2078 C   0  0  0  0  0  0  0  0  0  0  0  0
   -1.2278   -0.2970    1.3085 H   0  0  0  0  0  0  0  0  0  0  0  0
   -0.7053    1.0430   -0.3193 C   0  0  0  0  0  0  0  0  0  0  0  0
   -0.7028    1.0059   -1.4150 H   0  0  0  0  0  0  0  0  0  0  0  0
    0.7221    1.3219    0.1892 C   0  0  0  0  0  0  0  0  0  0  0  0
    0.7050    1.3764    1.2864 H   0  0  0  0  0  0  0  0  0  0  0  0
    1.6406    0.1589   -0.2356 C   0  0  0  0  0  0  0  0  0  0  0  0
    1.6574    0.0869   -1.3293 H   0  0  0  0  0  0  0  0  0  0  0  0
    1.0509   -1.1568    0.3318 C   0  0  0  0  0  0  0  0  0  0  0  0
    1.0286   -1.1006    1.4346 H   0  0  0  0  0  0  0  0  0  0  0  0
   -0.2536   -1.3438   -0.1731 O   0  0  0  0  0  0  0  0  0  0  0  0
    1.8055   -2.2674    0.0290 O   0  0  0  0  0  0  0  0  0  0  0  0
    2.9761    0.3519    0.1370 O   0  0  0  0  0  0  0  0  0  0  0  0
    1.2043    2.5755   -0.2118 O   0  0  0  0  0  0  0  0  0  0  0  0
   -1.6047    2.0638    0.0173 O   0  0  0  0  0  0  0  0  0  0  0  0
   -3.1905   -1.7381    0.3095 O   0  0  0  0  0  0  0  0  0  0  0  0
   -2.4004   -1.0544   -1.3932 H   0  0  0  0  0  0  0  0  0  0  0  0
   -3.1574    0.2117   -0.3879 H   0  0  0  0  0  0  0  0  0  0  0  0
    1.7406   -2.4628   -0.9187 H   0  0  0  0  0  0  0  0  0  0  0  0
    3.0538    0.4272    1.0986 H   0  0  0  0  0  0  0  0  0  0  0  0
    1.2959    2.6097   -1.1743 H   0  0  0  0  0  0  0  0  0  0  0  0
   -1.4696    2.3420    0.9350 H   0  0  0  0  0  0  0  0  0  0  0  0
   -3.4194   -1.4522    1.2054 H   0  0  0  0  0  0  0  0  0  0  0  0
  1  2  1  0  0  0  0
  2  3  1  0  0  0  0
  2  4  1  0  0  0  0
  4  5  1  0  0  0  0
  4  6  1  0  0  0  0
  6  7  1  0  0  0  0
  6  8  1  0  0  0  0
  8  9  1  0  0  0  0
  8 10  1  0  0  0  0
 10 11  1  0  0  0  0
  2 12  1  0  0  0  0
 10 12  1  0  0  0  0
 10 13  1  0  0  0  0
  8 14  1  0  0  0  0
  6 15  1  0  0  0  0
  4 16  1  0  0  0  0
  1 17  1  0  0  0  0
  1 18  1  0  0  0  0
  1 19  1  0  0  0  0
 13 20  1  0  0  0  0
 14 21  1  0  0  0  0
 15 22  1  0  0  0  0
 16 23  1  0  0  0  0
 17 24  1  0  0  0  0
M  END
