 xtb: 6.7.1 (edcfbbe)
          04032522173D

 12 11  0     0  0            999 V2000
   -1.6286   -0.1453    0.4581 C   0  0  0  0  0  0  0  0  0  0  0  0
   -0.6585    0.5170   -0.5155 C   0  0  0  0  0  0  0  0  0  0  0  0
    0.6790   -0.2208   -0.6133 C   0  0  0  0  0  0  0  0  0  0  0  0
    1.4847   -0.0893    0.5399 O   0  0  0  0  0  0  0  0  0  0  0  0
   -1.7961   -1.1838    0.1806 H   0  0  0  0  0  0  0  0  0  0  0  0
   -1.2475   -0.1127    1.4761 H   0  0  0  0  0  0  0  0  0  0  0  0
   -2.5839    0.3726    0.4427 H   0  0  0  0  0  0  0  0  0  0  0  0
   -0.4663    1.5458   -0.2057 H   0  0  0  0  0  0  0  0  0  0  0  0
   -1.1013    0.5389   -1.5120 H   0  0  0  0  0  0  0  0  0  0  0  0
    0.5037   -1.2837   -0.8305 H   0  0  0  0  0  0  0  0  0  0  0  0
    1.2773    0.2017   -1.4243 H   0  0  0  0  0  0  0  0  0  0  0  0
    1.0088   -0.4608    1.2952 H   0  0  0  0  0  0  0  0  0  0  0  0
  1  2  1  0  0  0  0
  2  3  1  0  0  0  0
  3  4  1  0  0  0  0
  1  5  1  0  0  0  0
  1  6  1  0  0  0  0
  1  7  1  0  0  0  0
  2  8  1  0  0  0  0
  2  9  1  0  0  0  0
  3 10  1  0  0  0  0
  3 11  1  0  0  0  0
  4 12  1  0  0  0  0
M  END
