 xtb: 6.7.1 (edcfbbe)
          04062518003D

 24 24  0     0  0            999 V2000
   -2.2664   -1.1416   -0.0431 C   0  0  0  0  0  0  0  0  0  0  0  0
   -0.8873   -0.5663    0.2880 C   0  0  0  0  0  0  0  0  0  0  0  0
   -0.7624   -0.5243    1.3791 H   0  0  0  0  0  0  0  0  0  0  0  0
   -0.7102    0.8531   -0.2724 C   0  0  0  0  0  0  0  0  0  0  0  0
   -1.0356    0.8435   -1.3275 H   0  0  0  0  0  0  0  0  0  0  0  0
    0.7795    1.2652   -0.2414 C   0  0  0  0  0  0  0  0  0  0  0  0
    0.8349    2.2187    0.3002 H   0  0  0  0  0  0  0  0  0  0  0  0
    1.6463    0.2505    0.5202 C   0  0  0  0  0  0  0  0  0  0  0  0
    2.6952    0.5041    0.3125 H   0  0  0  0  0  0  0  0  0  0  0  0
    1.4187   -1.1663   -0.0509 C   0  0  0  0  0  0  0  0  0  0  0  0
    1.8026   -1.9192    0.6562 H   0  0  0  0  0  0  0  0  0  0  0  0
    0.0524   -1.4538   -0.2940 O   0  0  0  0  0  0  0  0  0  0  0  0
    2.1341   -1.3577   -1.2207 O   0  0  0  0  0  0  0  0  0  0  0  0
    1.3631    0.3432    1.8916 O   0  0  0  0  0  0  0  0  0  0  0  0
    1.3260    1.3697   -1.5348 O   0  0  0  0  0  0  0  0  0  0  0  0
   -1.4412    1.8088    0.4516 O   0  0  0  0  0  0  0  0  0  0  0  0
   -3.2528   -0.3275    0.5481 O   0  0  0  0  0  0  0  0  0  0  0  0
   -2.3062   -2.1661    0.3423 H   0  0  0  0  0  0  0  0  0  0  0  0
   -2.3776   -1.1720   -1.1341 H   0  0  0  0  0  0  0  0  0  0  0  0
    1.9064   -0.6528   -1.8534 H   0  0  0  0  0  0  0  0  0  0  0  0
    2.0735   -0.0677    2.4051 H   0  0  0  0  0  0  0  0  0  0  0  0
    0.9683    2.1512   -1.9796 H   0  0  0  0  0  0  0  0  0  0  0  0
   -2.3224    1.4415    0.6392 H   0  0  0  0  0  0  0  0  0  0  0  0
   -4.1264   -0.7103    0.3845 H   0  0  0  0  0  0  0  0  0  0  0  0
  1  2  1  0  0  0  0
  2  3  1  0  0  0  0
  2  4  1  0  0  0  0
  4  5  1  0  0  0  0
  4  6  1  0  0  0  0
  6  7  1  0  0  0  0
  6  8  1  0  0  0  0
  8  9  1  0  0  0  0
  8 10  1  0  0  0  0
 10 11  1  0  0  0  0
  2 12  1  0  0  0  0
 10 12  1  0  0  0  0
 10 13  1  0  0  0  0
  8 14  1  0  0  0  0
  6 15  1  0  0  0  0
  4 16  1  0  0  0  0
  1 17  1  0  0  0  0
  1 18  1  0  0  0  0
  1 19  1  0  0  0  0
 13 20  1  0  0  0  0
 14 21  1  0  0  0  0
 15 22  1  0  0  0  0
 16 23  1  0  0  0  0
 17 24  1  0  0  0  0
M  END
