 xtb: 6.7.1 (edcfbbe)
          04062511443D

 31 31  0     0  0            999 V2000
    3.6890    0.3685    0.0423 C   0  0  0  0  0  0  0  0  0  0  0  0
    2.2147    0.2961   -0.3467 C   0  0  0  0  0  0  0  0  0  0  0  0
    2.1379    0.3296   -1.4393 H   0  0  0  0  0  0  0  0  0  0  0  0
    1.4317    1.4746    0.2310 C   0  0  0  0  0  0  0  0  0  0  0  0
   -0.0397    1.3872   -0.1625 C   0  0  0  0  0  0  0  0  0  0  0  0
   -0.6694    0.0902    0.3475 C   0  0  0  0  0  0  0  0  0  0  0  0
   -0.5435    0.0567    1.4376 H   0  0  0  0  0  0  0  0  0  0  0  0
    0.1072   -1.1065   -0.2325 C   0  0  0  0  0  0  0  0  0  0  0  0
    0.0079   -1.1142   -1.3236 H   0  0  0  0  0  0  0  0  0  0  0  0
    1.5891   -1.0093    0.1420 C   0  0  0  0  0  0  0  0  0  0  0  0
   -0.4357   -2.3495    0.1758 O   0  0  0  0  0  0  0  0  0  0  0  0
   -2.1816   -0.0246    0.0643 C   0  0  0  0  0  0  0  0  0  0  0  0
   -2.9902    0.8345    1.0358 C   0  0  0  0  0  0  0  0  0  0  0  0
   -2.5620    0.3234   -1.3738 C   0  0  0  0  0  0  0  0  0  0  0  0
    4.1328    1.2919   -0.3217 H   0  0  0  0  0  0  0  0  0  0  0  0
    3.7981    0.3383    1.1242 H   0  0  0  0  0  0  0  0  0  0  0  0
    4.2379   -0.4685   -0.3822 H   0  0  0  0  0  0  0  0  0  0  0  0
    1.5232    1.4702    1.3196 H   0  0  0  0  0  0  0  0  0  0  0  0
    1.8539    2.4121   -0.1358 H   0  0  0  0  0  0  0  0  0  0  0  0
   -0.5788    2.2421    0.2476 H   0  0  0  0  0  0  0  0  0  0  0  0
   -0.1148    1.4266   -1.2500 H   0  0  0  0  0  0  0  0  0  0  0  0
    1.6824   -1.0660    1.2303 H   0  0  0  0  0  0  0  0  0  0  0  0
    2.1164   -1.8652   -0.2853 H   0  0  0  0  0  0  0  0  0  0  0  0
   -0.3134   -2.4398    1.1313 H   0  0  0  0  0  0  0  0  0  0  0  0
   -2.4497   -1.0745    0.2328 H   0  0  0  0  0  0  0  0  0  0  0  0
   -2.7659    1.8894    0.8964 H   0  0  0  0  0  0  0  0  0  0  0  0
   -2.7699    0.5680    2.0669 H   0  0  0  0  0  0  0  0  0  0  0  0
   -4.0543    0.6896    0.8658 H   0  0  0  0  0  0  0  0  0  0  0  0
   -3.6097    0.0844   -1.5420 H   0  0  0  0  0  0  0  0  0  0  0  0
   -1.9693   -0.2486   -2.0830 H   0  0  0  0  0  0  0  0  0  0  0  0
   -2.4215    1.3832   -1.5695 H   0  0  0  0  0  0  0  0  0  0  0  0
  1  2  1  0  0  0  0
  2  3  1  0  0  0  0
  2  4  1  0  0  0  0
  4  5  1  0  0  0  0
  5  6  1  0  0  0  0
  6  7  1  0  0  0  0
  6  8  1  0  0  0  0
  8  9  1  0  0  0  0
  2 10  1  0  0  0  0
  8 10  1  0  0  0  0
  8 11  1  0  0  0  0
  6 12  1  0  0  0  0
 12 13  1  0  0  0  0
 12 14  1  0  0  0  0
  1 15  1  0  0  0  0
  1 16  1  0  0  0  0
  1 17  1  0  0  0  0
  4 18  1  0  0  0  0
  4 19  1  0  0  0  0
  5 20  1  0  0  0  0
  5 21  1  0  0  0  0
 10 22  1  0  0  0  0
 10 23  1  0  0  0  0
 11 24  1  0  0  0  0
 12 25  1  0  0  0  0
 13 26  1  0  0  0  0
 13 27  1  0  0  0  0
 13 28  1  0  0  0  0
 14 29  1  0  0  0  0
 14 30  1  0  0  0  0
 14 31  1  0  0  0  0
M  END
