 xtb: 6.7.1 (edcfbbe)
          04062518003D

 24 24  0     0  0            999 V2000
   -1.8421   -0.6172   -1.1108 C   0  0  0  0  0  0  0  0  0  0  0  0
   -1.2366   -0.5686    0.2995 C   0  0  0  0  0  0  0  0  0  0  0  0
   -2.0187   -0.8740    1.0075 H   0  0  0  0  0  0  0  0  0  0  0  0
   -0.8159    0.8577    0.6663 C   0  0  0  0  0  0  0  0  0  0  0  0
   -1.6394    1.5129    0.3552 H   0  0  0  0  0  0  0  0  0  0  0  0
    0.4500    1.3092   -0.0942 C   0  0  0  0  0  0  0  0  0  0  0  0
    1.0135    1.9873    0.5642 H   0  0  0  0  0  0  0  0  0  0  0  0
    1.3827    0.1264   -0.4004 C   0  0  0  0  0  0  0  0  0  0  0  0
    1.1712   -0.2597   -1.4103 H   0  0  0  0  0  0  0  0  0  0  0  0
    1.1120   -1.0190    0.5826 C   0  0  0  0  0  0  0  0  0  0  0  0
    1.2539   -0.6546    1.6190 H   0  0  0  0  0  0  0  0  0  0  0  0
   -0.1929   -1.5247    0.4290 O   0  0  0  0  0  0  0  0  0  0  0  0
    2.0011   -2.0423    0.2937 O   0  0  0  0  0  0  0  0  0  0  0  0
    2.7105    0.5754   -0.3131 O   0  0  0  0  0  0  0  0  0  0  0  0
    0.0467    1.9798   -1.2620 O   0  0  0  0  0  0  0  0  0  0  0  0
   -0.6238    0.9095    2.0615 O   0  0  0  0  0  0  0  0  0  0  0  0
   -3.1227   -0.0346   -1.0433 O   0  0  0  0  0  0  0  0  0  0  0  0
   -1.9003   -1.6700   -1.4139 H   0  0  0  0  0  0  0  0  0  0  0  0
   -1.2019   -0.0692   -1.8101 H   0  0  0  0  0  0  0  0  0  0  0  0
    1.7152   -2.8518    0.7433 H   0  0  0  0  0  0  0  0  0  0  0  0
    3.3010   -0.1920   -0.3600 H   0  0  0  0  0  0  0  0  0  0  0  0
    0.8220    2.3741   -1.6877 H   0  0  0  0  0  0  0  0  0  0  0  0
   -0.6886    1.8246    2.3706 H   0  0  0  0  0  0  0  0  0  0  0  0
   -3.5062   -0.0061   -1.9314 H   0  0  0  0  0  0  0  0  0  0  0  0
  1  2  1  0  0  0  0
  2  3  1  0  0  0  0
  2  4  1  0  0  0  0
  4  5  1  0  0  0  0
  4  6  1  0  0  0  0
  6  7  1  0  0  0  0
  6  8  1  0  0  0  0
  8  9  1  0  0  0  0
  8 10  1  0  0  0  0
 10 11  1  0  0  0  0
  2 12  1  0  0  0  0
 10 12  1  0  0  0  0
 10 13  1  0  0  0  0
  8 14  1  0  0  0  0
  6 15  1  0  0  0  0
  4 16  1  0  0  0  0
  1 17  1  0  0  0  0
  1 18  1  0  0  0  0
  1 19  1  0  0  0  0
 13 20  1  0  0  0  0
 14 21  1  0  0  0  0
 15 22  1  0  0  0  0
 16 23  1  0  0  0  0
 17 24  1  0  0  0  0
M  END
