 xtb: 6.7.1 (edcfbbe)
          04062501173D

 23 22  0     0  0            999 V2000
   -2.6822    0.8690    0.0181 C   0  0  0  0  0  0  0  0  0  0  0  0
   -1.6634   -0.1101   -0.5563 C   0  0  0  0  0  0  0  0  0  0  0  0
   -0.5893   -0.5033    0.4725 C   0  0  0  0  0  0  0  0  0  0  0  0
    0.8643   -0.1605    0.0962 C   0  0  0  0  0  0  0  0  0  0  0  0
    1.2842   -0.8993   -1.1768 C   0  0  0  0  0  0  0  0  0  0  0  0
    1.0356    1.3484   -0.0941 C   0  0  0  0  0  0  0  0  0  0  0  0
    1.7707   -0.6143    1.2465 C   0  0  0  0  0  0  0  0  0  0  0  0
   -2.1910    1.7843    0.3400 H   0  0  0  0  0  0  0  0  0  0  0  0
   -3.4293    1.1253   -0.7302 H   0  0  0  0  0  0  0  0  0  0  0  0
   -3.1920    0.4321    0.8740 H   0  0  0  0  0  0  0  0  0  0  0  0
   -2.1882   -1.0032   -0.9003 H   0  0  0  0  0  0  0  0  0  0  0  0
   -1.2032    0.3445   -1.4334 H   0  0  0  0  0  0  0  0  0  0  0  0
   -0.6413   -1.5785    0.6565 H   0  0  0  0  0  0  0  0  0  0  0  0
   -0.8136   -0.0082    1.4199 H   0  0  0  0  0  0  0  0  0  0  0  0
    0.6873   -0.5892   -2.0302 H   0  0  0  0  0  0  0  0  0  0  0  0
    2.3286   -0.6956   -1.4028 H   0  0  0  0  0  0  0  0  0  0  0  0
    1.1642   -1.9728   -1.0489 H   0  0  0  0  0  0  0  0  0  0  0  0
    0.7483    1.8794    0.8109 H   0  0  0  0  0  0  0  0  0  0  0  0
    0.4262    1.7161   -0.9151 H   0  0  0  0  0  0  0  0  0  0  0  0
    2.0747    1.5838   -0.3135 H   0  0  0  0  0  0  0  0  0  0  0  0
    1.5050   -0.1029    2.1692 H   0  0  0  0  0  0  0  0  0  0  0  0
    1.6761   -1.6856    1.4099 H   0  0  0  0  0  0  0  0  0  0  0  0
    2.8116   -0.3936    1.0209 H   0  0  0  0  0  0  0  0  0  0  0  0
  1  2  1  0  0  0  0
  2  3  1  0  0  0  0
  3  4  1  0  0  0  0
  4  5  1  0  0  0  0
  4  6  1  0  0  0  0
  4  7  1  0  0  0  0
  1  8  1  0  0  0  0
  1  9  1  0  0  0  0
  1 10  1  0  0  0  0
  2 11  1  0  0  0  0
  2 12  1  0  0  0  0
  3 13  1  0  0  0  0
  3 14  1  0  0  0  0
  5 15  1  0  0  0  0
  5 16  1  0  0  0  0
  5 17  1  0  0  0  0
  6 18  1  0  0  0  0
  6 19  1  0  0  0  0
  6 20  1  0  0  0  0
  7 21  1  0  0  0  0
  7 22  1  0  0  0  0
  7 23  1  0  0  0  0
M  END
