 xtb: 6.7.1 (edcfbbe)
          04032521453D

 17 17  0     0  0            999 V2000
    1.8416   -1.4401    0.0004 C   0  0  0  0  0  0  0  0  0  0  0  0
    0.5329   -0.7175   -0.0001 C   0  0  0  0  0  0  0  0  0  0  0  0
   -0.6716   -1.4059   -0.0003 C   0  0  0  0  0  0  0  0  0  0  0  0
   -1.8671   -0.7038   -0.0001 C   0  0  0  0  0  0  0  0  0  0  0  0
   -1.8065    0.6781    0.0003 C   0  0  0  0  0  0  0  0  0  0  0  0
   -0.6675    1.3531    0.0002 N   0  0  0  0  0  0  0  0  0  0  0  0
    0.4792    0.6844   -0.0001 C   0  0  0  0  0  0  0  0  0  0  0  0
    1.7281    1.5070   -0.0003 C   0  0  0  0  0  0  0  0  0  0  0  0
    2.4244   -1.1710   -0.8790 H   0  0  0  0  0  0  0  0  0  0  0  0
    2.4244   -1.1697    0.8794 H   0  0  0  0  0  0  0  0  0  0  0  0
    1.6840   -2.5154    0.0012 H   0  0  0  0  0  0  0  0  0  0  0  0
   -0.6749   -2.4870   -0.0004 H   0  0  0  0  0  0  0  0  0  0  0  0
   -2.8164   -1.2156   -0.0003 H   0  0  0  0  0  0  0  0  0  0  0  0
   -2.7039    1.2829    0.0006 H   0  0  0  0  0  0  0  0  0  0  0  0
    1.4655    2.5599   -0.0016 H   0  0  0  0  0  0  0  0  0  0  0  0
    2.3270    1.2860    0.8811 H   0  0  0  0  0  0  0  0  0  0  0  0
    2.3281    1.2839   -0.8804 H   0  0  0  0  0  0  0  0  0  0  0  0
  1  2  1  0  0  0  0
  2  3  4  0  0  0  0
  3  4  4  0  0  0  0
  4  5  4  0  0  0  0
  5  6  4  0  0  0  0
  2  7  4  0  0  0  0
  6  7  4  0  0  0  0
  7  8  1  0  0  0  0
  1  9  1  0  0  0  0
  1 10  1  0  0  0  0
  1 11  1  0  0  0  0
  3 12  1  0  0  0  0
  4 13  1  0  0  0  0
  5 14  1  0  0  0  0
  8 15  1  0  0  0  0
  8 16  1  0  0  0  0
  8 17  1  0  0  0  0
M  END
