 xtb: 6.7.1 (edcfbbe)
          04062508313D

 24 24  0     0  0            999 V2000
   -3.3802   -0.4130    0.0340 C   0  0  0  0  0  0  0  0  0  0  0  0
   -2.1843    0.0047   -0.6309 O   0  0  0  0  0  0  0  0  0  0  0  0
   -1.0535    0.0711    0.0703 C   0  0  0  0  0  0  0  0  0  0  0  0
   -0.9961   -0.1894    1.2528 O   0  0  0  0  0  0  0  0  0  0  0  0
    0.0908    0.4850   -0.8263 C   0  0  0  0  0  0  0  0  0  0  0  0
    0.8954   -0.7632   -1.2309 C   0  0  0  0  0  0  0  0  0  0  0  0
    1.6967   -1.3212   -0.0597 C   0  0  0  0  0  0  0  0  0  0  0  0
    2.6397   -0.2554    0.4894 C   0  0  0  0  0  0  0  0  0  0  0  0
    1.8356    0.9499    0.9650 C   0  0  0  0  0  0  0  0  0  0  0  0
    1.0078    1.5295   -0.1786 C   0  0  0  0  0  0  0  0  0  0  0  0
   -3.3087   -0.1926    1.0998 H   0  0  0  0  0  0  0  0  0  0  0  0
   -3.5128   -1.4851   -0.1108 H   0  0  0  0  0  0  0  0  0  0  0  0
   -4.1957    0.1375   -0.4264 H   0  0  0  0  0  0  0  0  0  0  0  0
   -0.3679    0.9091   -1.7249 H   0  0  0  0  0  0  0  0  0  0  0  0
    0.2163   -1.5230   -1.6238 H   0  0  0  0  0  0  0  0  0  0  0  0
    1.5806   -0.4751   -2.0301 H   0  0  0  0  0  0  0  0  0  0  0  0
    1.0161   -1.6394    0.7330 H   0  0  0  0  0  0  0  0  0  0  0  0
    2.2633   -2.1936   -0.3900 H   0  0  0  0  0  0  0  0  0  0  0  0
    3.2201   -0.6635    1.3182 H   0  0  0  0  0  0  0  0  0  0  0  0
    3.3364    0.0535   -0.2934 H   0  0  0  0  0  0  0  0  0  0  0  0
    1.1694    0.6427    1.7724 H   0  0  0  0  0  0  0  0  0  0  0  0
    2.5047    1.7203    1.3522 H   0  0  0  0  0  0  0  0  0  0  0  0
    0.4072    2.3653    0.1860 H   0  0  0  0  0  0  0  0  0  0  0  0
    1.6795    1.9071   -0.9522 H   0  0  0  0  0  0  0  0  0  0  0  0
  1  2  1  0  0  0  0
  2  3  1  0  0  0  0
  3  4  2  0  0  0  0
  3  5  1  0  0  0  0
  5  6  1  0  0  0  0
  6  7  1  0  0  0  0
  7  8  1  0  0  0  0
  8  9  1  0  0  0  0
  5 10  1  0  0  0  0
  9 10  1  0  0  0  0
  1 11  1  0  0  0  0
  1 12  1  0  0  0  0
  1 13  1  0  0  0  0
  5 14  1  0  0  0  0
  6 15  1  0  0  0  0
  6 16  1  0  0  0  0
  7 17  1  0  0  0  0
  7 18  1  0  0  0  0
  8 19  1  0  0  0  0
  8 20  1  0  0  0  0
  9 21  1  0  0  0  0
  9 22  1  0  0  0  0
 10 23  1  0  0  0  0
 10 24  1  0  0  0  0
M  END
