 xtb: 6.7.1 (edcfbbe)
          04062518003D

 24 24  0     0  0            999 V2000
   -2.0541   -1.3910   -0.1085 C   0  0  0  0  0  0  0  0  0  0  0  0
   -1.0038   -0.5158    0.6016 C   0  0  0  0  0  0  0  0  0  0  0  0
   -1.4193   -0.1509    1.5504 H   0  0  0  0  0  0  0  0  0  0  0  0
   -0.6480    0.7059   -0.2582 C   0  0  0  0  0  0  0  0  0  0  0  0
   -0.5410    0.4045   -1.3115 H   0  0  0  0  0  0  0  0  0  0  0  0
    0.6994    1.2532    0.2198 C   0  0  0  0  0  0  0  0  0  0  0  0
    0.6604    1.3918    1.3124 H   0  0  0  0  0  0  0  0  0  0  0  0
    1.7773    0.2151   -0.1129 C   0  0  0  0  0  0  0  0  0  0  0  0
    2.0237    0.3166   -1.1802 H   0  0  0  0  0  0  0  0  0  0  0  0
    1.2436   -1.2162    0.1022 C   0  0  0  0  0  0  0  0  0  0  0  0
    2.0249   -1.7789    0.6305 H   0  0  0  0  0  0  0  0  0  0  0  0
    0.1429   -1.2766    0.9727 O   0  0  0  0  0  0  0  0  0  0  0  0
    0.9537   -1.7684   -1.1438 O   0  0  0  0  0  0  0  0  0  0  0  0
    2.9260    0.3682    0.6781 O   0  0  0  0  0  0  0  0  0  0  0  0
    1.0355    2.4625   -0.4105 O   0  0  0  0  0  0  0  0  0  0  0  0
   -1.6122    1.7216   -0.1358 O   0  0  0  0  0  0  0  0  0  0  0  0
   -3.2705   -0.6981   -0.2645 O   0  0  0  0  0  0  0  0  0  0  0  0
   -2.1848   -2.3203    0.4544 H   0  0  0  0  0  0  0  0  0  0  0  0
   -1.7038   -1.6327   -1.1150 H   0  0  0  0  0  0  0  0  0  0  0  0
    0.8820   -2.7329   -1.0749 H   0  0  0  0  0  0  0  0  0  0  0  0
    3.2738    1.2637    0.5488 H   0  0  0  0  0  0  0  0  0  0  0  0
    0.2476    3.0284   -0.4084 H   0  0  0  0  0  0  0  0  0  0  0  0
   -2.4623    1.3729   -0.4507 H   0  0  0  0  0  0  0  0  0  0  0  0
   -3.7547   -0.7012    0.5733 H   0  0  0  0  0  0  0  0  0  0  0  0
  1  2  1  0  0  0  0
  2  3  1  0  0  0  0
  2  4  1  0  0  0  0
  4  5  1  0  0  0  0
  4  6  1  0  0  0  0
  6  7  1  0  0  0  0
  6  8  1  0  0  0  0
  8  9  1  0  0  0  0
  8 10  1  0  0  0  0
 10 11  1  0  0  0  0
  2 12  1  0  0  0  0
 10 12  1  0  0  0  0
 10 13  1  0  0  0  0
  8 14  1  0  0  0  0
  6 15  1  0  0  0  0
  4 16  1  0  0  0  0
  1 17  1  0  0  0  0
  1 18  1  0  0  0  0
  1 19  1  0  0  0  0
 13 20  1  0  0  0  0
 14 21  1  0  0  0  0
 15 22  1  0  0  0  0
 16 23  1  0  0  0  0
 17 24  1  0  0  0  0
M  END
