 xtb: 6.7.1 (edcfbbe)
          04062518003D

 24 24  0     0  0            999 V2000
   -2.4041   -1.1440   -0.2824 C   0  0  0  0  0  0  0  0  0  0  0  0
   -1.0604   -0.6206    0.2523 C   0  0  0  0  0  0  0  0  0  0  0  0
   -1.0703   -0.5972    1.3555 H   0  0  0  0  0  0  0  0  0  0  0  0
   -0.7672    0.8002   -0.2547 C   0  0  0  0  0  0  0  0  0  0  0  0
   -0.8008    0.7943   -1.3562 H   0  0  0  0  0  0  0  0  0  0  0  0
    0.6403    1.2480    0.1718 C   0  0  0  0  0  0  0  0  0  0  0  0
    0.6534    1.3886    1.2639 H   0  0  0  0  0  0  0  0  0  0  0  0
    1.6858    0.1899   -0.1859 C   0  0  0  0  0  0  0  0  0  0  0  0
    1.8109    0.1782   -1.2775 H   0  0  0  0  0  0  0  0  0  0  0  0
    1.2225   -1.2079    0.2663 C   0  0  0  0  0  0  0  0  0  0  0  0
    1.2270   -1.2259    1.3781 H   0  0  0  0  0  0  0  0  0  0  0  0
   -0.0703   -1.5236   -0.1943 O   0  0  0  0  0  0  0  0  0  0  0  0
    2.1049   -2.1330   -0.2532 O   0  0  0  0  0  0  0  0  0  0  0  0
    2.8873    0.5232    0.4569 O   0  0  0  0  0  0  0  0  0  0  0  0
    0.9925    2.4447   -0.4732 O   0  0  0  0  0  0  0  0  0  0  0  0
   -1.6710    1.7430    0.2650 O   0  0  0  0  0  0  0  0  0  0  0  0
   -3.4967   -0.3821    0.1651 O   0  0  0  0  0  0  0  0  0  0  0  0
   -2.5006   -2.1986   -0.0077 H   0  0  0  0  0  0  0  0  0  0  0  0
   -2.3972   -1.0730   -1.3724 H   0  0  0  0  0  0  0  0  0  0  0  0
    1.7447   -3.0276   -0.1470 H   0  0  0  0  0  0  0  0  0  0  0  0
    3.5777   -0.0936    0.1703 H   0  0  0  0  0  0  0  0  0  0  0  0
    0.3191    3.1096   -0.2626 H   0  0  0  0  0  0  0  0  0  0  0  0
   -2.5775    1.4299    0.0921 H   0  0  0  0  0  0  0  0  0  0  0  0
   -3.6981   -0.6025    1.0858 H   0  0  0  0  0  0  0  0  0  0  0  0
  1  2  1  0  0  0  0
  2  3  1  0  0  0  0
  2  4  1  0  0  0  0
  4  5  1  0  0  0  0
  4  6  1  0  0  0  0
  6  7  1  0  0  0  0
  6  8  1  0  0  0  0
  8  9  1  0  0  0  0
  8 10  1  0  0  0  0
 10 11  1  0  0  0  0
  2 12  1  0  0  0  0
 10 12  1  0  0  0  0
 10 13  1  0  0  0  0
  8 14  1  0  0  0  0
  6 15  1  0  0  0  0
  4 16  1  0  0  0  0
  1 17  1  0  0  0  0
  1 18  1  0  0  0  0
  1 19  1  0  0  0  0
 13 20  1  0  0  0  0
 14 21  1  0  0  0  0
 15 22  1  0  0  0  0
 16 23  1  0  0  0  0
 17 24  1  0  0  0  0
M  END
