 xtb: 6.7.1 (edcfbbe)
          04062518003D

 24 24  0     0  0            999 V2000
   -1.8403   -0.6206   -1.0901 C   0  0  0  0  0  0  0  0  0  0  0  0
   -1.2328   -0.5450    0.3259 C   0  0  0  0  0  0  0  0  0  0  0  0
   -2.0002   -0.8377    1.0565 H   0  0  0  0  0  0  0  0  0  0  0  0
   -0.8062    0.8861    0.6663 C   0  0  0  0  0  0  0  0  0  0  0  0
   -1.6192    1.5441    0.3310 H   0  0  0  0  0  0  0  0  0  0  0  0
    0.4691    1.3163   -0.0911 C   0  0  0  0  0  0  0  0  0  0  0  0
    1.0526    1.9710    0.5744 H   0  0  0  0  0  0  0  0  0  0  0  0
    1.3721    0.1180   -0.4205 C   0  0  0  0  0  0  0  0  0  0  0  0
    1.1186   -0.2733   -1.4183 H   0  0  0  0  0  0  0  0  0  0  0  0
    1.1191   -1.0121    0.5842 C   0  0  0  0  0  0  0  0  0  0  0  0
    1.2922   -0.6348    1.6117 H   0  0  0  0  0  0  0  0  0  0  0  0
   -0.1936   -1.5056    0.4740 O   0  0  0  0  0  0  0  0  0  0  0  0
    1.9911   -2.0470    0.2861 O   0  0  0  0  0  0  0  0  0  0  0  0
    2.7082    0.5493   -0.3835 O   0  0  0  0  0  0  0  0  0  0  0  0
    0.0769    2.0149   -1.2460 O   0  0  0  0  0  0  0  0  0  0  0  0
   -0.6326    0.9632    2.0629 O   0  0  0  0  0  0  0  0  0  0  0  0
   -3.1506   -0.1193   -1.1303 O   0  0  0  0  0  0  0  0  0  0  0  0
   -1.7973   -1.6640   -1.4234 H   0  0  0  0  0  0  0  0  0  0  0  0
   -1.2660    0.0005   -1.7796 H   0  0  0  0  0  0  0  0  0  0  0  0
    1.7146   -2.8472    0.7579 H   0  0  0  0  0  0  0  0  0  0  0  0
    3.2862   -0.2262   -0.4502 H   0  0  0  0  0  0  0  0  0  0  0  0
    0.8627    2.3716   -1.6853 H   0  0  0  0  0  0  0  0  0  0  0  0
   -0.6446    1.8884    2.3473 H   0  0  0  0  0  0  0  0  0  0  0  0
   -3.7378   -0.7003   -0.6251 H   0  0  0  0  0  0  0  0  0  0  0  0
  1  2  1  0  0  0  0
  2  3  1  0  0  0  0
  2  4  1  0  0  0  0
  4  5  1  0  0  0  0
  4  6  1  0  0  0  0
  6  7  1  0  0  0  0
  6  8  1  0  0  0  0
  8  9  1  0  0  0  0
  8 10  1  0  0  0  0
 10 11  1  0  0  0  0
  2 12  1  0  0  0  0
 10 12  1  0  0  0  0
 10 13  1  0  0  0  0
  8 14  1  0  0  0  0
  6 15  1  0  0  0  0
  4 16  1  0  0  0  0
  1 17  1  0  0  0  0
  1 18  1  0  0  0  0
  1 19  1  0  0  0  0
 13 20  1  0  0  0  0
 14 21  1  0  0  0  0
 15 22  1  0  0  0  0
 16 23  1  0  0  0  0
 17 24  1  0  0  0  0
M  END
