 xtb: 6.7.1 (edcfbbe)
          04062518003D

 24 24  0     0  0            999 V2000
   -1.7822   -1.3394   -0.5232 C   0  0  0  0  0  0  0  0  0  0  0  0
   -1.1225   -0.4647    0.5586 C   0  0  0  0  0  0  0  0  0  0  0  0
   -1.8354   -0.3725    1.3862 H   0  0  0  0  0  0  0  0  0  0  0  0
   -0.7967    0.9585    0.0327 C   0  0  0  0  0  0  0  0  0  0  0  0
   -0.9833    1.0189   -1.0461 H   0  0  0  0  0  0  0  0  0  0  0  0
    0.6909    1.2618    0.2463 C   0  0  0  0  0  0  0  0  0  0  0  0
    0.9090    1.3143    1.3258 H   0  0  0  0  0  0  0  0  0  0  0  0
    1.5133    0.1133   -0.3525 C   0  0  0  0  0  0  0  0  0  0  0  0
    1.2427   -0.0032   -1.4110 H   0  0  0  0  0  0  0  0  0  0  0  0
    1.1711   -1.1973    0.3839 C   0  0  0  0  0  0  0  0  0  0  0  0
    1.9551   -1.3951    1.1314 H   0  0  0  0  0  0  0  0  0  0  0  0
    0.0013   -1.0996    1.1567 O   0  0  0  0  0  0  0  0  0  0  0  0
    1.1100   -2.2155   -0.5655 O   0  0  0  0  0  0  0  0  0  0  0  0
    2.8700    0.4530   -0.2189 O   0  0  0  0  0  0  0  0  0  0  0  0
    0.9973    2.4820   -0.3726 O   0  0  0  0  0  0  0  0  0  0  0  0
   -1.6412    1.9278    0.5928 O   0  0  0  0  0  0  0  0  0  0  0  0
   -3.1026   -0.9408   -0.7907 O   0  0  0  0  0  0  0  0  0  0  0  0
   -1.8525   -2.3652   -0.1551 H   0  0  0  0  0  0  0  0  0  0  0  0
   -1.1742   -1.3335   -1.4377 H   0  0  0  0  0  0  0  0  0  0  0  0
    1.0158   -3.0777   -0.1328 H   0  0  0  0  0  0  0  0  0  0  0  0
    3.4178   -0.1546   -0.7353 H   0  0  0  0  0  0  0  0  0  0  0  0
    1.9624    2.5809   -0.3809 H   0  0  0  0  0  0  0  0  0  0  0  0
   -1.3775    2.1161    1.5047 H   0  0  0  0  0  0  0  0  0  0  0  0
   -3.1215   -0.0024   -1.0262 H   0  0  0  0  0  0  0  0  0  0  0  0
  1  2  1  0  0  0  0
  2  3  1  0  0  0  0
  2  4  1  0  0  0  0
  4  5  1  0  0  0  0
  4  6  1  0  0  0  0
  6  7  1  0  0  0  0
  6  8  1  0  0  0  0
  8  9  1  0  0  0  0
  8 10  1  0  0  0  0
 10 11  1  0  0  0  0
  2 12  1  0  0  0  0
 10 12  1  0  0  0  0
 10 13  1  0  0  0  0
  8 14  1  0  0  0  0
  6 15  1  0  0  0  0
  4 16  1  0  0  0  0
  1 17  1  0  0  0  0
  1 18  1  0  0  0  0
  1 19  1  0  0  0  0
 13 20  1  0  0  0  0
 14 21  1  0  0  0  0
 15 22  1  0  0  0  0
 16 23  1  0  0  0  0
 17 24  1  0  0  0  0
M  END
