 xtb: 6.7.1 (edcfbbe)
          04052512103D

 26 25  0     0  0            999 V2000
   -2.0096    1.2207   -0.3764 C   0  0  0  0  0  0  0  0  0  0  0  0
   -1.6497   -0.2286   -0.0543 C   0  0  0  0  0  0  0  0  0  0  0  0
   -1.8488   -0.5003    1.4361 C   0  0  0  0  0  0  0  0  0  0  0  0
   -0.2917   -0.6957   -0.6169 C   0  0  0  0  0  0  0  0  0  0  0  0
    1.0692   -0.0971   -0.1972 C   0  0  0  0  0  0  0  0  0  0  0  0
    1.2095    1.3804   -0.5702 C   0  0  0  0  0  0  0  0  0  0  0  0
    1.3652   -0.2736    1.2935 C   0  0  0  0  0  0  0  0  0  0  0  0
    2.1322   -0.8819   -0.9839 C   0  0  0  0  0  0  0  0  0  0  0  0
   -1.4757    1.9144    0.2660 H   0  0  0  0  0  0  0  0  0  0  0  0
   -1.7810    1.4566   -1.4124 H   0  0  0  0  0  0  0  0  0  0  0  0
   -3.0751    1.3766   -0.2178 H   0  0  0  0  0  0  0  0  0  0  0  0
   -2.3771   -0.8578   -0.5862 H   0  0  0  0  0  0  0  0  0  0  0  0
   -1.5113   -1.5000    1.6969 H   0  0  0  0  0  0  0  0  0  0  0  0
   -1.3123    0.2190    2.0470 H   0  0  0  0  0  0  0  0  0  0  0  0
   -2.9058   -0.4216    1.6835 H   0  0  0  0  0  0  0  0  0  0  0  0
   -0.2343   -1.7699   -0.4158 H   0  0  0  0  0  0  0  0  0  0  0  0
   -0.3577   -0.5833   -1.7035 H   0  0  0  0  0  0  0  0  0  0  0  0
    2.2464    1.6910   -0.4564 H   0  0  0  0  0  0  0  0  0  0  0  0
    0.6030    2.0121    0.0699 H   0  0  0  0  0  0  0  0  0  0  0  0
    0.9158    1.5476   -1.6035 H   0  0  0  0  0  0  0  0  0  0  0  0
    2.4127   -0.0511    1.4890 H   0  0  0  0  0  0  0  0  0  0  0  0
    1.1698   -1.2956    1.6083 H   0  0  0  0  0  0  0  0  0  0  0  0
    0.7661    0.3984    1.8994 H   0  0  0  0  0  0  0  0  0  0  0  0
    1.9758   -0.7753   -2.0551 H   0  0  0  0  0  0  0  0  0  0  0  0
    2.0926   -1.9404   -0.7360 H   0  0  0  0  0  0  0  0  0  0  0  0
    3.1287   -0.5150   -0.7480 H   0  0  0  0  0  0  0  0  0  0  0  0
  1  2  1  0  0  0  0
  2  3  1  0  0  0  0
  2  4  1  0  0  0  0
  4  5  1  0  0  0  0
  5  6  1  0  0  0  0
  5  7  1  0  0  0  0
  5  8  1  0  0  0  0
  1  9  1  0  0  0  0
  1 10  1  0  0  0  0
  1 11  1  0  0  0  0
  2 12  1  0  0  0  0
  3 13  1  0  0  0  0
  3 14  1  0  0  0  0
  3 15  1  0  0  0  0
  4 16  1  0  0  0  0
  4 17  1  0  0  0  0
  6 18  1  0  0  0  0
  6 19  1  0  0  0  0
  6 20  1  0  0  0  0
  7 21  1  0  0  0  0
  7 22  1  0  0  0  0
  7 23  1  0  0  0  0
  8 24  1  0  0  0  0
  8 25  1  0  0  0  0
  8 26  1  0  0  0  0
M  END
