 xtb: 6.7.1 (edcfbbe)
          04062518003D

 24 24  0     0  0            999 V2000
   -2.4787   -1.0902    0.3329 C   0  0  0  0  0  0  0  0  0  0  0  0
   -1.0492   -0.5762    0.5654 C   0  0  0  0  0  0  0  0  0  0  0  0
   -0.8560   -0.5118    1.6482 H   0  0  0  0  0  0  0  0  0  0  0  0
   -0.8109    0.8074   -0.0608 C   0  0  0  0  0  0  0  0  0  0  0  0
   -0.9417    0.7175   -1.1476 H   0  0  0  0  0  0  0  0  0  0  0  0
    0.6311    1.2559    0.2117 C   0  0  0  0  0  0  0  0  0  0  0  0
    0.7612    1.4133    1.2940 H   0  0  0  0  0  0  0  0  0  0  0  0
    1.6214    0.1813   -0.2419 C   0  0  0  0  0  0  0  0  0  0  0  0
    1.6265    0.1574   -1.3404 H   0  0  0  0  0  0  0  0  0  0  0  0
    1.1971   -1.2078    0.2736 C   0  0  0  0  0  0  0  0  0  0  0  0
    1.3478   -1.2193    1.3760 H   0  0  0  0  0  0  0  0  0  0  0  0
   -0.1483   -1.5077   -0.0046 O   0  0  0  0  0  0  0  0  0  0  0  0
    1.9921   -2.1490   -0.3496 O   0  0  0  0  0  0  0  0  0  0  0  0
    2.8901    0.5067    0.2614 O   0  0  0  0  0  0  0  0  0  0  0  0
    0.9203    2.4398   -0.4862 O   0  0  0  0  0  0  0  0  0  0  0  0
   -1.6672    1.7872    0.4694 O   0  0  0  0  0  0  0  0  0  0  0  0
   -3.0347   -0.4878   -0.8140 O   0  0  0  0  0  0  0  0  0  0  0  0
   -3.0871   -0.8527    1.2140 H   0  0  0  0  0  0  0  0  0  0  0  0
   -2.4117   -2.1765    0.2194 H   0  0  0  0  0  0  0  0  0  0  0  0
    1.6307   -3.0362   -0.1957 H   0  0  0  0  0  0  0  0  0  0  0  0
    3.5391   -0.1173   -0.0971 H   0  0  0  0  0  0  0  0  0  0  0  0
    0.2617    3.1050   -0.2321 H   0  0  0  0  0  0  0  0  0  0  0  0
   -2.5563    1.6387    0.1135 H   0  0  0  0  0  0  0  0  0  0  0  0
   -3.8338   -0.9679   -1.0718 H   0  0  0  0  0  0  0  0  0  0  0  0
  1  2  1  0  0  0  0
  2  3  1  0  0  0  0
  2  4  1  0  0  0  0
  4  5  1  0  0  0  0
  4  6  1  0  0  0  0
  6  7  1  0  0  0  0
  6  8  1  0  0  0  0
  8  9  1  0  0  0  0
  8 10  1  0  0  0  0
 10 11  1  0  0  0  0
  2 12  1  0  0  0  0
 10 12  1  0  0  0  0
 10 13  1  0  0  0  0
  8 14  1  0  0  0  0
  6 15  1  0  0  0  0
  4 16  1  0  0  0  0
  1 17  1  0  0  0  0
  1 18  1  0  0  0  0
  1 19  1  0  0  0  0
 13 20  1  0  0  0  0
 14 21  1  0  0  0  0
 15 22  1  0  0  0  0
 16 23  1  0  0  0  0
 17 24  1  0  0  0  0
M  END
