 xtb: 6.7.1 (edcfbbe)
          04062518003D

 24 24  0     0  0            999 V2000
   -2.4220   -0.7078   -0.0402 C   0  0  0  0  0  0  0  0  0  0  0  0
   -1.0130   -0.2616    0.3623 C   0  0  0  0  0  0  0  0  0  0  0  0
   -1.0350    0.0976    1.4017 H   0  0  0  0  0  0  0  0  0  0  0  0
   -0.4991    0.8642   -0.5341 C   0  0  0  0  0  0  0  0  0  0  0  0
   -0.3627    0.4858   -1.5576 H   0  0  0  0  0  0  0  0  0  0  0  0
    0.8664    1.3302   -0.0090 C   0  0  0  0  0  0  0  0  0  0  0  0
    0.6858    1.9198    0.9028 H   0  0  0  0  0  0  0  0  0  0  0  0
    1.7468    0.1324    0.4106 C   0  0  0  0  0  0  0  0  0  0  0  0
    2.7316    0.2404   -0.0671 H   0  0  0  0  0  0  0  0  0  0  0  0
    1.1661   -1.2020   -0.0878 C   0  0  0  0  0  0  0  0  0  0  0  0
    1.7122   -2.0349    0.3868 H   0  0  0  0  0  0  0  0  0  0  0  0
   -0.1663   -1.4098    0.2968 O   0  0  0  0  0  0  0  0  0  0  0  0
    1.3329   -1.2434   -1.4717 O   0  0  0  0  0  0  0  0  0  0  0  0
    1.8491    0.1630    1.8109 O   0  0  0  0  0  0  0  0  0  0  0  0
    1.4486    2.1209   -1.0131 O   0  0  0  0  0  0  0  0  0  0  0  0
   -1.4322    1.9127   -0.5167 O   0  0  0  0  0  0  0  0  0  0  0  0
   -2.9524   -1.6560    0.8489 O   0  0  0  0  0  0  0  0  0  0  0  0
   -2.3902   -1.1098   -1.0613 H   0  0  0  0  0  0  0  0  0  0  0  0
   -3.0852    0.1576   -0.0149 H   0  0  0  0  0  0  0  0  0  0  0  0
    1.0477   -2.1044   -1.8153 H   0  0  0  0  0  0  0  0  0  0  0  0
    2.4396   -0.5375    2.1250 H   0  0  0  0  0  0  0  0  0  0  0  0
    2.2366    2.5668   -0.6714 H   0  0  0  0  0  0  0  0  0  0  0  0
   -1.0829    2.6384   -1.0561 H   0  0  0  0  0  0  0  0  0  0  0  0
   -2.3194   -2.3849    0.9269 H   0  0  0  0  0  0  0  0  0  0  0  0
  1  2  1  0  0  0  0
  2  3  1  0  0  0  0
  2  4  1  0  0  0  0
  4  5  1  0  0  0  0
  4  6  1  0  0  0  0
  6  7  1  0  0  0  0
  6  8  1  0  0  0  0
  8  9  1  0  0  0  0
  8 10  1  0  0  0  0
 10 11  1  0  0  0  0
  2 12  1  0  0  0  0
 10 12  1  0  0  0  0
 10 13  1  0  0  0  0
  8 14  1  0  0  0  0
  6 15  1  0  0  0  0
  4 16  1  0  0  0  0
  1 17  1  0  0  0  0
  1 18  1  0  0  0  0
  1 19  1  0  0  0  0
 13 20  1  0  0  0  0
 14 21  1  0  0  0  0
 15 22  1  0  0  0  0
 16 23  1  0  0  0  0
 17 24  1  0  0  0  0
M  END
