 xtb: 6.7.1 (edcfbbe)
          04052516073D

 27 27  0     0  0            999 V2000
   -2.8968    0.4897   -0.5160 C   0  0  0  0  0  0  0  0  0  0  0  0
   -1.6813    0.5657    0.4157 C   0  0  0  0  0  0  0  0  0  0  0  0
   -2.0442    0.7954    1.4241 H   0  0  0  0  0  0  0  0  0  0  0  0
   -0.6819    1.6481   -0.0184 C   0  0  0  0  0  0  0  0  0  0  0  0
    0.1244    1.2475   -1.2500 C   0  0  0  0  0  0  0  0  0  0  0  0
    0.8585   -0.0774   -1.0267 C   0  0  0  0  0  0  0  0  0  0  0  0
    1.3644   -0.3602   -1.9593 H   0  0  0  0  0  0  0  0  0  0  0  0
   -0.2090   -1.1537   -0.7425 C   0  0  0  0  0  0  0  0  0  0  0  0
   -0.9966   -0.7790    0.4788 C   0  0  0  0  0  0  0  0  0  0  0  0
   -1.0763   -1.5005    1.4562 O   0  0  0  0  0  0  0  0  0  0  0  0
    1.9328   -0.0286    0.0437 C   0  0  0  0  0  0  0  0  0  0  0  0
    2.5386    1.0857    0.4263 C   0  0  0  0  0  0  0  0  0  0  0  0
    2.3515   -1.3493    0.6221 C   0  0  0  0  0  0  0  0  0  0  0  0
   -3.5506   -0.3259   -0.2143 H   0  0  0  0  0  0  0  0  0  0  0  0
   -3.4556    1.4198   -0.4553 H   0  0  0  0  0  0  0  0  0  0  0  0
   -2.5988    0.3325   -1.5477 H   0  0  0  0  0  0  0  0  0  0  0  0
   -1.2288    2.5713   -0.2164 H   0  0  0  0  0  0  0  0  0  0  0  0
    0.0028    1.8335    0.8110 H   0  0  0  0  0  0  0  0  0  0  0  0
   -0.5396    1.1379   -2.1083 H   0  0  0  0  0  0  0  0  0  0  0  0
    0.8342    2.0373   -1.4935 H   0  0  0  0  0  0  0  0  0  0  0  0
   -0.8909   -1.1930   -1.5927 H   0  0  0  0  0  0  0  0  0  0  0  0
    0.2289   -2.1415   -0.6087 H   0  0  0  0  0  0  0  0  0  0  0  0
    3.3248    1.0623    1.1623 H   0  0  0  0  0  0  0  0  0  0  0  0
    2.2980    2.0595    0.0405 H   0  0  0  0  0  0  0  0  0  0  0  0
    1.5651   -1.7547    1.2585 H   0  0  0  0  0  0  0  0  0  0  0  0
    2.5576   -2.0689   -0.1683 H   0  0  0  0  0  0  0  0  0  0  0  0
    3.2468   -1.2314    1.2267 H   0  0  0  0  0  0  0  0  0  0  0  0
  1  2  1  0  0  0  0
  2  3  1  0  0  0  0
  2  4  1  0  0  0  0
  4  5  1  0  0  0  0
  5  6  1  0  0  0  0
  6  7  1  0  0  0  0
  6  8  1  0  0  0  0
  2  9  1  0  0  0  0
  8  9  1  0  0  0  0
  9 10  2  0  0  0  0
  6 11  1  0  0  0  0
 11 12  2  0  0  0  0
 11 13  1  0  0  0  0
  1 14  1  0  0  0  0
  1 15  1  0  0  0  0
  1 16  1  0  0  0  0
  4 17  1  0  0  0  0
  4 18  1  0  0  0  0
  5 19  1  0  0  0  0
  5 20  1  0  0  0  0
  8 21  1  0  0  0  0
  8 22  1  0  0  0  0
 12 23  1  0  0  0  0
 12 24  1  0  0  0  0
 13 25  1  0  0  0  0
 13 26  1  0  0  0  0
 13 27  1  0  0  0  0
M  END
