 xtb: 6.7.1 (edcfbbe)
          04062518003D

 24 24  0     0  0            999 V2000
   -2.4283   -0.6501   -0.0149 C   0  0  0  0  0  0  0  0  0  0  0  0
   -0.9928   -0.2517    0.3422 C   0  0  0  0  0  0  0  0  0  0  0  0
   -0.9412   -0.0129    1.4134 H   0  0  0  0  0  0  0  0  0  0  0  0
   -0.5389    0.9699   -0.4572 C   0  0  0  0  0  0  0  0  0  0  0  0
   -0.5855    0.7160   -1.5273 H   0  0  0  0  0  0  0  0  0  0  0  0
    0.9266    1.3232   -0.1157 C   0  0  0  0  0  0  0  0  0  0  0  0
    0.9112    2.1446    0.6127 H   0  0  0  0  0  0  0  0  0  0  0  0
    1.6690    0.1435    0.5493 C   0  0  0  0  0  0  0  0  0  0  0  0
    2.7438    0.2455    0.3317 H   0  0  0  0  0  0  0  0  0  0  0  0
    1.2051   -1.1744   -0.0916 C   0  0  0  0  0  0  0  0  0  0  0  0
    1.6850   -2.0403    0.3852 H   0  0  0  0  0  0  0  0  0  0  0  0
   -0.1785   -1.3887    0.0633 O   0  0  0  0  0  0  0  0  0  0  0  0
    1.5971   -1.2388   -1.4280 O   0  0  0  0  0  0  0  0  0  0  0  0
    1.4335    0.1997    1.9310 O   0  0  0  0  0  0  0  0  0  0  0  0
    1.5467    1.7007   -1.3240 O   0  0  0  0  0  0  0  0  0  0  0  0
   -1.4093    2.0314   -0.1669 O   0  0  0  0  0  0  0  0  0  0  0  0
   -2.9015   -1.6971    0.7905 O   0  0  0  0  0  0  0  0  0  0  0  0
   -2.4612   -0.9340   -1.0753 H   0  0  0  0  0  0  0  0  0  0  0  0
   -3.0860    0.2030    0.1563 H   0  0  0  0  0  0  0  0  0  0  0  0
    1.4261   -0.3946   -1.8804 H   0  0  0  0  0  0  0  0  0  0  0  0
    1.9391   -0.4890    2.3864 H   0  0  0  0  0  0  0  0  0  0  0  0
    2.3778    2.1657   -1.1510 H   0  0  0  0  0  0  0  0  0  0  0  0
   -1.2309    2.7690   -0.7689 H   0  0  0  0  0  0  0  0  0  0  0  0
   -2.2783   -2.4350    0.7196 H   0  0  0  0  0  0  0  0  0  0  0  0
  1  2  1  0  0  0  0
  2  3  1  0  0  0  0
  2  4  1  0  0  0  0
  4  5  1  0  0  0  0
  4  6  1  0  0  0  0
  6  7  1  0  0  0  0
  6  8  1  0  0  0  0
  8  9  1  0  0  0  0
  8 10  1  0  0  0  0
 10 11  1  0  0  0  0
  2 12  1  0  0  0  0
 10 12  1  0  0  0  0
 10 13  1  0  0  0  0
  8 14  1  0  0  0  0
  6 15  1  0  0  0  0
  4 16  1  0  0  0  0
  1 17  1  0  0  0  0
  1 18  1  0  0  0  0
  1 19  1  0  0  0  0
 13 20  1  0  0  0  0
 14 21  1  0  0  0  0
 15 22  1  0  0  0  0
 16 23  1  0  0  0  0
 17 24  1  0  0  0  0
M  END
