 xtb: 6.7.1 (edcfbbe)
          04062518003D

 24 24  0     0  0            999 V2000
   -2.2683   -1.1221    0.0429 C   0  0  0  0  0  0  0  0  0  0  0  0
   -0.8748   -0.5613    0.3600 C   0  0  0  0  0  0  0  0  0  0  0  0
   -0.8250   -0.3381    1.4359 H   0  0  0  0  0  0  0  0  0  0  0  0
   -0.5894    0.7235   -0.4220 C   0  0  0  0  0  0  0  0  0  0  0  0
   -0.6017    0.4786   -1.4955 H   0  0  0  0  0  0  0  0  0  0  0  0
    0.8138    1.2641   -0.0735 C   0  0  0  0  0  0  0  0  0  0  0  0
    0.6956    2.0430    0.6919 H   0  0  0  0  0  0  0  0  0  0  0  0
    1.7153    0.1676    0.5348 C   0  0  0  0  0  0  0  0  0  0  0  0
    2.7636    0.4115    0.3007 H   0  0  0  0  0  0  0  0  0  0  0  0
    1.4085   -1.1795   -0.1408 C   0  0  0  0  0  0  0  0  0  0  0  0
    2.0032   -1.9910    0.3004 H   0  0  0  0  0  0  0  0  0  0  0  0
    0.0645   -1.5763    0.0292 O   0  0  0  0  0  0  0  0  0  0  0  0
    1.7821   -1.1534   -1.4836 O   0  0  0  0  0  0  0  0  0  0  0  0
    1.5069    0.1521    1.9219 O   0  0  0  0  0  0  0  0  0  0  0  0
    1.3590    1.7775   -1.2673 O   0  0  0  0  0  0  0  0  0  0  0  0
   -1.5967    1.6580   -0.1266 O   0  0  0  0  0  0  0  0  0  0  0  0
   -3.2914   -0.4394    0.7149 O   0  0  0  0  0  0  0  0  0  0  0  0
   -2.3025   -2.1595    0.3815 H   0  0  0  0  0  0  0  0  0  0  0  0
   -2.4290   -1.1039   -1.0437 H   0  0  0  0  0  0  0  0  0  0  0  0
    1.4903   -0.3296   -1.9107 H   0  0  0  0  0  0  0  0  0  0  0  0
    2.0908   -0.4956    2.3423 H   0  0  0  0  0  0  0  0  0  0  0  0
    2.1345    2.3258   -1.0809 H   0  0  0  0  0  0  0  0  0  0  0  0
   -1.4906    2.4367   -0.6924 H   0  0  0  0  0  0  0  0  0  0  0  0
   -3.1871    0.5105    0.5363 H   0  0  0  0  0  0  0  0  0  0  0  0
  1  2  1  0  0  0  0
  2  3  1  0  0  0  0
  2  4  1  0  0  0  0
  4  5  1  0  0  0  0
  4  6  1  0  0  0  0
  6  7  1  0  0  0  0
  6  8  1  0  0  0  0
  8  9  1  0  0  0  0
  8 10  1  0  0  0  0
 10 11  1  0  0  0  0
  2 12  1  0  0  0  0
 10 12  1  0  0  0  0
 10 13  1  0  0  0  0
  8 14  1  0  0  0  0
  6 15  1  0  0  0  0
  4 16  1  0  0  0  0
  1 17  1  0  0  0  0
  1 18  1  0  0  0  0
  1 19  1  0  0  0  0
 13 20  1  0  0  0  0
 14 21  1  0  0  0  0
 15 22  1  0  0  0  0
 16 23  1  0  0  0  0
 17 24  1  0  0  0  0
M  END
