 xtb: 6.7.1 (edcfbbe)
          04062518003D

 24 24  0     0  0            999 V2000
   -2.2132   -0.9761   -0.4252 C   0  0  0  0  0  0  0  0  0  0  0  0
   -1.1846   -0.1940    0.4075 C   0  0  0  0  0  0  0  0  0  0  0  0
   -1.6873    0.2430    1.2789 H   0  0  0  0  0  0  0  0  0  0  0  0
   -0.5883    0.9527   -0.4194 C   0  0  0  0  0  0  0  0  0  0  0  0
   -0.4492    0.6239   -1.4628 H   0  0  0  0  0  0  0  0  0  0  0  0
    0.7848    1.3187    0.1709 C   0  0  0  0  0  0  0  0  0  0  0  0
    0.6636    1.4979    1.2464 H   0  0  0  0  0  0  0  0  0  0  0  0
    1.7398    0.1408   -0.0536 C   0  0  0  0  0  0  0  0  0  0  0  0
    2.0591    0.1229   -1.1021 H   0  0  0  0  0  0  0  0  0  0  0  0
    0.9933   -1.1963    0.2045 C   0  0  0  0  0  0  0  0  0  0  0  0
    1.6304   -1.8318    0.8374 H   0  0  0  0  0  0  0  0  0  0  0  0
   -0.1756   -1.0328    0.9662 O   0  0  0  0  0  0  0  0  0  0  0  0
    0.7543   -1.7936   -1.0308 O   0  0  0  0  0  0  0  0  0  0  0  0
    2.9221    0.2435    0.6906 O   0  0  0  0  0  0  0  0  0  0  0  0
    1.2528    2.5330   -0.3555 O   0  0  0  0  0  0  0  0  0  0  0  0
   -1.4727    2.0419   -0.3798 O   0  0  0  0  0  0  0  0  0  0  0  0
   -2.8092   -2.0387    0.2726 O   0  0  0  0  0  0  0  0  0  0  0  0
   -1.7222   -1.4248   -1.2907 H   0  0  0  0  0  0  0  0  0  0  0  0
   -2.9636   -0.2555   -0.7758 H   0  0  0  0  0  0  0  0  0  0  0  0
    0.4320   -2.6996   -0.9044 H   0  0  0  0  0  0  0  0  0  0  0  0
    2.7188    0.3674    1.6293 H   0  0  0  0  0  0  0  0  0  0  0  0
    1.6208    2.3941   -1.2405 H   0  0  0  0  0  0  0  0  0  0  0  0
   -0.9516    2.8560   -0.4901 H   0  0  0  0  0  0  0  0  0  0  0  0
   -3.2607   -1.6984    1.0576 H   0  0  0  0  0  0  0  0  0  0  0  0
  1  2  1  0  0  0  0
  2  3  1  0  0  0  0
  2  4  1  0  0  0  0
  4  5  1  0  0  0  0
  4  6  1  0  0  0  0
  6  7  1  0  0  0  0
  6  8  1  0  0  0  0
  8  9  1  0  0  0  0
  8 10  1  0  0  0  0
 10 11  1  0  0  0  0
  2 12  1  0  0  0  0
 10 12  1  0  0  0  0
 10 13  1  0  0  0  0
  8 14  1  0  0  0  0
  6 15  1  0  0  0  0
  4 16  1  0  0  0  0
  1 17  1  0  0  0  0
  1 18  1  0  0  0  0
  1 19  1  0  0  0  0
 13 20  1  0  0  0  0
 14 21  1  0  0  0  0
 15 22  1  0  0  0  0
 16 23  1  0  0  0  0
 17 24  1  0  0  0  0
M  END
