 xtb: 6.7.1 (edcfbbe)
          04042516023D

 14 13  0     0  0            999 V2000
   -2.4017   -0.0914    0.4398 C   0  0  0  0  0  0  0  0  0  0  0  0
   -1.2518   -0.6661   -0.3849 C   0  0  0  0  0  0  0  0  0  0  0  0
    0.0126    0.1279   -0.1781 C   0  0  0  0  0  0  0  0  0  0  0  0
    0.0870    1.3382   -0.2182 O   0  0  0  0  0  0  0  0  0  0  0  0
    1.0508   -0.6686    0.0470 O   0  0  0  0  0  0  0  0  0  0  0  0
    2.3456   -0.0915    0.2472 C   0  0  0  0  0  0  0  0  0  0  0  0
   -2.5162    0.9682    0.2254 H   0  0  0  0  0  0  0  0  0  0  0  0
   -3.3267   -0.6048    0.1975 H   0  0  0  0  0  0  0  0  0  0  0  0
   -2.2044   -0.2074    1.5023 H   0  0  0  0  0  0  0  0  0  0  0  0
   -1.5000   -0.6021   -1.4464 H   0  0  0  0  0  0  0  0  0  0  0  0
   -1.0554   -1.7063   -0.1295 H   0  0  0  0  0  0  0  0  0  0  0  0
    2.6627   -0.3242    1.2623 H   0  0  0  0  0  0  0  0  0  0  0  0
    2.2952    0.9882    0.1026 H   0  0  0  0  0  0  0  0  0  0  0  0
    3.0205   -0.5463   -0.4748 H   0  0  0  0  0  0  0  0  0  0  0  0
  1  2  1  0  0  0  0
  2  3  1  0  0  0  0
  3  4  2  0  0  0  0
  3  5  1  0  0  0  0
  5  6  1  0  0  0  0
  1  7  1  0  0  0  0
  1  8  1  0  0  0  0
  1  9  1  0  0  0  0
  2 10  1  0  0  0  0
  2 11  1  0  0  0  0
  6 12  1  0  0  0  0
  6 13  1  0  0  0  0
  6 14  1  0  0  0  0
M  END
