 xtb: 6.7.1 (edcfbbe)
          04032521123D

 18 18  0     0  0            999 V2000
   -0.7055   -2.9688    0.2269 C   0  0  0  0  0  0  0  0  0  0  0  0
    0.6758   -2.9827    0.3099 C   0  0  0  0  0  0  0  0  0  0  0  0
    1.3876   -1.7968    0.2454 C   0  0  0  0  0  0  0  0  0  0  0  0
    0.7275   -0.5814    0.0966 C   0  0  0  0  0  0  0  0  0  0  0  0
   -0.6674   -0.5677    0.0123 C   0  0  0  0  0  0  0  0  0  0  0  0
   -1.3729   -1.7658    0.0784 C   0  0  0  0  0  0  0  0  0  0  0  0
   -1.5272    0.6556   -0.1522 C   0  0  0  0  0  0  0  0  0  0  0  0
   -2.2685    0.5804   -1.2793 F   0  0  0  0  0  0  0  0  0  0  0  0
   -2.4207    0.7607    0.8557 F   0  0  0  0  0  0  0  0  0  0  0  0
   -0.9052    1.8370   -0.2073 F   0  0  0  0  0  0  0  0  0  0  0  0
    1.5532    0.6754    0.0336 C   0  0  0  0  0  0  0  0  0  0  0  0
    2.8701    0.4315    0.1291 F   0  0  0  0  0  0  0  0  0  0  0  0
    1.4017    1.3527   -1.1221 F   0  0  0  0  0  0  0  0  0  0  0  0
    1.2801    1.5397    1.0316 F   0  0  0  0  0  0  0  0  0  0  0  0
   -1.2672   -3.8869    0.2764 H   0  0  0  0  0  0  0  0  0  0  0  0
    1.2071   -3.9130    0.4256 H   0  0  0  0  0  0  0  0  0  0  0  0
    2.4637   -1.8080    0.3105 H   0  0  0  0  0  0  0  0  0  0  0  0
   -2.4493   -1.7397    0.0117 H   0  0  0  0  0  0  0  0  0  0  0  0
  1  2  4  0  0  0  0
  2  3  4  0  0  0  0
  3  4  4  0  0  0  0
  4  5  4  0  0  0  0
  1  6  4  0  0  0  0
  5  6  4  0  0  0  0
  5  7  1  0  0  0  0
  7  8  1  0  0  0  0
  7  9  1  0  0  0  0
  7 10  1  0  0  0  0
  4 11  1  0  0  0  0
 11 12  1  0  0  0  0
 11 13  1  0  0  0  0
 11 14  1  0  0  0  0
  1 15  1  0  0  0  0
  2 16  1  0  0  0  0
  3 17  1  0  0  0  0
  6 18  1  0  0  0  0
M  END
