 xtb: 6.7.1 (edcfbbe)
          04052509003D

 22 23  0     0  0            999 V2000
   -3.9059    1.5141   -0.0691 C   0  0  0  0  0  0  0  0  0  0  0  0
   -3.5275    0.5554   -0.9944 C   0  0  0  0  0  0  0  0  0  0  0  0
   -2.2443    0.0393   -0.9773 C   0  0  0  0  0  0  0  0  0  0  0  0
   -1.3232    0.4827   -0.0334 C   0  0  0  0  0  0  0  0  0  0  0  0
   -1.7056    1.4564    0.8847 C   0  0  0  0  0  0  0  0  0  0  0  0
   -2.9920    1.9641    0.8695 C   0  0  0  0  0  0  0  0  0  0  0  0
    0.0521   -0.0483   -0.0091 C   0  0  0  0  0  0  0  0  0  0  0  0
    1.1266    0.8355   -0.0727 C   0  0  0  0  0  0  0  0  0  0  0  0
    2.4246    0.3598   -0.0591 C   0  0  0  0  0  0  0  0  0  0  0  0
    2.6908   -0.9973    0.0240 C   0  0  0  0  0  0  0  0  0  0  0  0
    1.6316   -1.8836    0.1023 C   0  0  0  0  0  0  0  0  0  0  0  0
    0.3295   -1.4114    0.0855 C   0  0  0  0  0  0  0  0  0  0  0  0
   -0.9682   -2.5581    0.2394 Cl  0  0  0  0  0  0  0  0  0  0  0  0
    3.7432    1.4867   -0.1481 Cl  0  0  0  0  0  0  0  0  0  0  0  0
   -4.9096    1.9109   -0.0813 H   0  0  0  0  0  0  0  0  0  0  0  0
   -4.2340    0.2077   -1.7330 H   0  0  0  0  0  0  0  0  0  0  0  0
   -1.9478   -0.6978   -1.7083 H   0  0  0  0  0  0  0  0  0  0  0  0
   -0.9938    1.7989    1.6207 H   0  0  0  0  0  0  0  0  0  0  0  0
   -3.2821    2.7123    1.5914 H   0  0  0  0  0  0  0  0  0  0  0  0
    0.9350    1.8941   -0.1464 H   0  0  0  0  0  0  0  0  0  0  0  0
    3.7063   -1.3561    0.0330 H   0  0  0  0  0  0  0  0  0  0  0  0
    1.8149   -2.9425    0.1805 H   0  0  0  0  0  0  0  0  0  0  0  0
  1  2  4  0  0  0  0
  2  3  4  0  0  0  0
  3  4  4  0  0  0  0
  4  5  4  0  0  0  0
  1  6  4  0  0  0  0
  5  6  4  0  0  0  0
  4  7  1  0  0  0  0
  7  8  4  0  0  0  0
  8  9  4  0  0  0  0
  9 10  4  0  0  0  0
 10 11  4  0  0  0  0
  7 12  4  0  0  0  0
 11 12  4  0  0  0  0
 12 13  1  0  0  0  0
  9 14  1  0  0  0  0
  1 15  1  0  0  0  0
  2 16  1  0  0  0  0
  3 17  1  0  0  0  0
  5 18  1  0  0  0  0
  6 19  1  0  0  0  0
  8 20  1  0  0  0  0
 10 21  1  0  0  0  0
 11 22  1  0  0  0  0
M  END
