 xtb: 6.7.1 (edcfbbe)
          04062518003D

 24 24  0     0  0            999 V2000
   -2.0677   -1.1860   -0.2753 C   0  0  0  0  0  0  0  0  0  0  0  0
   -1.2714   -0.3540    0.7396 C   0  0  0  0  0  0  0  0  0  0  0  0
   -1.9092   -0.2358    1.6220 H   0  0  0  0  0  0  0  0  0  0  0  0
   -0.9363    1.0593    0.1916 C   0  0  0  0  0  0  0  0  0  0  0  0
   -1.2258    1.1313   -0.8616 H   0  0  0  0  0  0  0  0  0  0  0  0
    0.5777    1.2875    0.2772 C   0  0  0  0  0  0  0  0  0  0  0  0
    0.8754    1.3392    1.3401 H   0  0  0  0  0  0  0  0  0  0  0  0
    1.2821    0.0918   -0.3847 C   0  0  0  0  0  0  0  0  0  0  0  0
    0.8913   -0.0216   -1.4023 H   0  0  0  0  0  0  0  0  0  0  0  0
    0.9856   -1.1926    0.4181 C   0  0  0  0  0  0  0  0  0  0  0  0
    1.8093   -1.4028    1.1128 H   0  0  0  0  0  0  0  0  0  0  0  0
   -0.1313   -1.0252    1.2651 O   0  0  0  0  0  0  0  0  0  0  0  0
    0.8893   -2.3172   -0.3852 O   0  0  0  0  0  0  0  0  0  0  0  0
    2.6544    0.3436   -0.5445 O   0  0  0  0  0  0  0  0  0  0  0  0
    0.9190    2.4892   -0.3642 O   0  0  0  0  0  0  0  0  0  0  0  0
   -1.6842    2.0525    0.8405 O   0  0  0  0  0  0  0  0  0  0  0  0
   -1.3831   -1.2610   -1.5134 O   0  0  0  0  0  0  0  0  0  0  0  0
   -3.0366   -0.6947   -0.4037 H   0  0  0  0  0  0  0  0  0  0  0  0
   -2.2146   -2.1901    0.1403 H   0  0  0  0  0  0  0  0  0  0  0  0
    0.1676   -2.1744   -1.0328 H   0  0  0  0  0  0  0  0  0  0  0  0
    3.1076    0.3007    0.3106 H   0  0  0  0  0  0  0  0  0  0  0  0
    1.8073    2.3855   -0.7449 H   0  0  0  0  0  0  0  0  0  0  0  0
   -1.3196    2.2213    1.7212 H   0  0  0  0  0  0  0  0  0  0  0  0
   -1.9777   -1.6318   -2.1813 H   0  0  0  0  0  0  0  0  0  0  0  0
  1  2  1  0  0  0  0
  2  3  1  0  0  0  0
  2  4  1  0  0  0  0
  4  5  1  0  0  0  0
  4  6  1  0  0  0  0
  6  7  1  0  0  0  0
  6  8  1  0  0  0  0
  8  9  1  0  0  0  0
  8 10  1  0  0  0  0
 10 11  1  0  0  0  0
  2 12  1  0  0  0  0
 10 12  1  0  0  0  0
 10 13  1  0  0  0  0
  8 14  1  0  0  0  0
  6 15  1  0  0  0  0
  4 16  1  0  0  0  0
  1 17  1  0  0  0  0
  1 18  1  0  0  0  0
  1 19  1  0  0  0  0
 13 20  1  0  0  0  0
 14 21  1  0  0  0  0
 15 22  1  0  0  0  0
 16 23  1  0  0  0  0
 17 24  1  0  0  0  0
M  END
