 xtb: 6.7.1 (edcfbbe)
          04062518003D

 24 24  0     0  0            999 V2000
   -2.1611   -1.2049   -0.0393 C   0  0  0  0  0  0  0  0  0  0  0  0
   -1.2012   -0.3458    0.7979 C   0  0  0  0  0  0  0  0  0  0  0  0
   -1.7115   -0.1256    1.7420 H   0  0  0  0  0  0  0  0  0  0  0  0
   -0.8764    0.9903    0.0855 C   0  0  0  0  0  0  0  0  0  0  0  0
   -1.0957    0.8912   -0.9844 H   0  0  0  0  0  0  0  0  0  0  0  0
    0.6171    1.2876    0.2540 C   0  0  0  0  0  0  0  0  0  0  0  0
    0.8713    1.3493    1.3192 H   0  0  0  0  0  0  0  0  0  0  0  0
    1.4109    0.1271   -0.3672 C   0  0  0  0  0  0  0  0  0  0  0  0
    1.1663    0.0555   -1.4405 H   0  0  0  0  0  0  0  0  0  0  0  0
    1.0207   -1.2061    0.3142 C   0  0  0  0  0  0  0  0  0  0  0  0
    1.8674   -1.5328    0.9296 H   0  0  0  0  0  0  0  0  0  0  0  0
   -0.0361   -1.0431    1.2305 O   0  0  0  0  0  0  0  0  0  0  0  0
    0.7925   -2.2257   -0.5955 O   0  0  0  0  0  0  0  0  0  0  0  0
    2.7940    0.3168   -0.2097 O   0  0  0  0  0  0  0  0  0  0  0  0
    1.0037    2.5195   -0.2998 O   0  0  0  0  0  0  0  0  0  0  0  0
   -1.6996    2.0370    0.5261 O   0  0  0  0  0  0  0  0  0  0  0  0
   -1.6765   -1.3460   -1.3635 O   0  0  0  0  0  0  0  0  0  0  0  0
   -3.1307   -0.6969   -0.0465 H   0  0  0  0  0  0  0  0  0  0  0  0
   -2.2567   -2.1838    0.4430 H   0  0  0  0  0  0  0  0  0  0  0  0
   -0.0262   -2.0224   -1.1013 H   0  0  0  0  0  0  0  0  0  0  0  0
    2.9932    1.2522   -0.3836 H   0  0  0  0  0  0  0  0  0  0  0  0
    0.5863    2.6384   -1.1656 H   0  0  0  0  0  0  0  0  0  0  0  0
   -1.4537    2.3002    1.4247 H   0  0  0  0  0  0  0  0  0  0  0  0
   -2.3278   -1.8340   -1.8879 H   0  0  0  0  0  0  0  0  0  0  0  0
  1  2  1  0  0  0  0
  2  3  1  0  0  0  0
  2  4  1  0  0  0  0
  4  5  1  0  0  0  0
  4  6  1  0  0  0  0
  6  7  1  0  0  0  0
  6  8  1  0  0  0  0
  8  9  1  0  0  0  0
  8 10  1  0  0  0  0
 10 11  1  0  0  0  0
  2 12  1  0  0  0  0
 10 12  1  0  0  0  0
 10 13  1  0  0  0  0
  8 14  1  0  0  0  0
  6 15  1  0  0  0  0
  4 16  1  0  0  0  0
  1 17  1  0  0  0  0
  1 18  1  0  0  0  0
  1 19  1  0  0  0  0
 13 20  1  0  0  0  0
 14 21  1  0  0  0  0
 15 22  1  0  0  0  0
 16 23  1  0  0  0  0
 17 24  1  0  0  0  0
M  END
