 xtb: 6.7.1 (edcfbbe)
          04062518003D

 24 24  0     0  0            999 V2000
   -2.4015   -0.8257    0.5190 C   0  0  0  0  0  0  0  0  0  0  0  0
   -0.9938   -0.2615    0.7809 C   0  0  0  0  0  0  0  0  0  0  0  0
   -0.9910    0.1815    1.7869 H   0  0  0  0  0  0  0  0  0  0  0  0
   -0.6396    0.8432   -0.2143 C   0  0  0  0  0  0  0  0  0  0  0  0
   -0.7035    0.4582   -1.2409 H   0  0  0  0  0  0  0  0  0  0  0  0
    0.7936    1.3258    0.0499 C   0  0  0  0  0  0  0  0  0  0  0  0
    0.7954    1.8321    1.0290 H   0  0  0  0  0  0  0  0  0  0  0  0
    1.7882    0.1434    0.1210 C   0  0  0  0  0  0  0  0  0  0  0  0
    2.5076    0.2401   -0.6985 H   0  0  0  0  0  0  0  0  0  0  0  0
    1.0751   -1.2065   -0.0654 C   0  0  0  0  0  0  0  0  0  0  0  0
    1.7477   -2.0031    0.2882 H   0  0  0  0  0  0  0  0  0  0  0  0
   -0.0538   -1.3393    0.7658 O   0  0  0  0  0  0  0  0  0  0  0  0
    0.7826   -1.3599   -1.4165 O   0  0  0  0  0  0  0  0  0  0  0  0
    2.5417    0.1540    1.3069 O   0  0  0  0  0  0  0  0  0  0  0  0
    1.1113    2.2438   -0.9681 O   0  0  0  0  0  0  0  0  0  0  0  0
   -1.5562    1.8915   -0.0187 O   0  0  0  0  0  0  0  0  0  0  0  0
   -2.4688   -1.5933   -0.6537 O   0  0  0  0  0  0  0  0  0  0  0  0
   -3.0872    0.0126    0.3912 H   0  0  0  0  0  0  0  0  0  0  0  0
   -2.7084   -1.4223    1.3864 H   0  0  0  0  0  0  0  0  0  0  0  0
    0.5324   -2.2743   -1.6166 H   0  0  0  0  0  0  0  0  0  0  0  0
    1.9845   -0.1100    2.0535 H   0  0  0  0  0  0  0  0  0  0  0  0
    1.9658    2.6579   -0.7828 H   0  0  0  0  0  0  0  0  0  0  0  0
   -1.3211    2.6101   -0.6248 H   0  0  0  0  0  0  0  0  0  0  0  0
   -1.8826   -2.3552   -0.5396 H   0  0  0  0  0  0  0  0  0  0  0  0
  1  2  1  0  0  0  0
  2  3  1  0  0  0  0
  2  4  1  0  0  0  0
  4  5  1  0  0  0  0
  4  6  1  0  0  0  0
  6  7  1  0  0  0  0
  6  8  1  0  0  0  0
  8  9  1  0  0  0  0
  8 10  1  0  0  0  0
 10 11  1  0  0  0  0
  2 12  1  0  0  0  0
 10 12  1  0  0  0  0
 10 13  1  0  0  0  0
  8 14  1  0  0  0  0
  6 15  1  0  0  0  0
  4 16  1  0  0  0  0
  1 17  1  0  0  0  0
  1 18  1  0  0  0  0
  1 19  1  0  0  0  0
 13 20  1  0  0  0  0
 14 21  1  0  0  0  0
 15 22  1  0  0  0  0
 16 23  1  0  0  0  0
 17 24  1  0  0  0  0
M  END
