 xtb: 6.7.1 (edcfbbe)
          04052516073D

 27 27  0     0  0            999 V2000
   -3.0538    0.5909   -0.6866 C   0  0  0  0  0  0  0  0  0  0  0  0
   -1.9461    0.5302    0.3670 C   0  0  0  0  0  0  0  0  0  0  0  0
   -2.4139    0.6889    1.3471 H   0  0  0  0  0  0  0  0  0  0  0  0
   -0.8595    1.5887    0.1519 C   0  0  0  0  0  0  0  0  0  0  0  0
    0.1582    1.1170   -0.8836 C   0  0  0  0  0  0  0  0  0  0  0  0
    0.8839   -0.1741   -0.4569 C   0  0  0  0  0  0  0  0  0  0  0  0
    0.8824   -0.8659   -1.3047 H   0  0  0  0  0  0  0  0  0  0  0  0
    0.1335   -0.8724    0.7010 C   0  0  0  0  0  0  0  0  0  0  0  0
   -1.3434   -0.8553    0.4372 C   0  0  0  0  0  0  0  0  0  0  0  0
   -2.0000   -1.8696    0.2962 O   0  0  0  0  0  0  0  0  0  0  0  0
    2.3241    0.0395   -0.0391 C   0  0  0  0  0  0  0  0  0  0  0  0
    2.7110    1.0576    0.7129 C   0  0  0  0  0  0  0  0  0  0  0  0
    3.2819   -1.0095   -0.5142 C   0  0  0  0  0  0  0  0  0  0  0  0
   -3.7396   -0.2414   -0.5468 H   0  0  0  0  0  0  0  0  0  0  0  0
   -3.6061    1.5226   -0.6039 H   0  0  0  0  0  0  0  0  0  0  0  0
   -2.6340    0.5194   -1.6869 H   0  0  0  0  0  0  0  0  0  0  0  0
   -1.3256    2.5137   -0.1894 H   0  0  0  0  0  0  0  0  0  0  0  0
   -0.3550    1.8022    1.0943 H   0  0  0  0  0  0  0  0  0  0  0  0
   -0.3654    0.9355   -1.8237 H   0  0  0  0  0  0  0  0  0  0  0  0
    0.8902    1.9039   -1.0656 H   0  0  0  0  0  0  0  0  0  0  0  0
    0.4778   -1.9013    0.8103 H   0  0  0  0  0  0  0  0  0  0  0  0
    0.3287   -0.3338    1.6288 H   0  0  0  0  0  0  0  0  0  0  0  0
    3.7388    1.1794    1.0090 H   0  0  0  0  0  0  0  0  0  0  0  0
    2.0291    1.8135    1.0606 H   0  0  0  0  0  0  0  0  0  0  0  0
    4.2776   -0.8419   -0.1137 H   0  0  0  0  0  0  0  0  0  0  0  0
    2.9408   -1.9973   -0.2077 H   0  0  0  0  0  0  0  0  0  0  0  0
    3.3359   -1.0007   -1.6022 H   0  0  0  0  0  0  0  0  0  0  0  0
  1  2  1  0  0  0  0
  2  3  1  0  0  0  0
  2  4  1  0  0  0  0
  4  5  1  0  0  0  0
  5  6  1  0  0  0  0
  6  7  1  0  0  0  0
  6  8  1  0  0  0  0
  2  9  1  0  0  0  0
  8  9  1  0  0  0  0
  9 10  2  0  0  0  0
  6 11  1  0  0  0  0
 11 12  2  0  0  0  0
 11 13  1  0  0  0  0
  1 14  1  0  0  0  0
  1 15  1  0  0  0  0
  1 16  1  0  0  0  0
  4 17  1  0  0  0  0
  4 18  1  0  0  0  0
  5 19  1  0  0  0  0
  5 20  1  0  0  0  0
  8 21  1  0  0  0  0
  8 22  1  0  0  0  0
 12 23  1  0  0  0  0
 12 24  1  0  0  0  0
 13 25  1  0  0  0  0
 13 26  1  0  0  0  0
 13 27  1  0  0  0  0
M  END
