 xtb: 6.7.1 (edcfbbe)
          04062518003D

 24 24  0     0  0            999 V2000
   -2.2564   -1.1600    0.0886 C   0  0  0  0  0  0  0  0  0  0  0  0
   -0.8778   -0.5654    0.4144 C   0  0  0  0  0  0  0  0  0  0  0  0
   -0.8742   -0.2529    1.4704 H   0  0  0  0  0  0  0  0  0  0  0  0
   -0.5556    0.6467   -0.4633 C   0  0  0  0  0  0  0  0  0  0  0  0
   -0.4141    0.3098   -1.5004 H   0  0  0  0  0  0  0  0  0  0  0  0
    0.7613    1.2770    0.0124 C   0  0  0  0  0  0  0  0  0  0  0  0
    0.5309    1.8717    0.9112 H   0  0  0  0  0  0  0  0  0  0  0  0
    1.7791    0.1837    0.4191 C   0  0  0  0  0  0  0  0  0  0  0  0
    2.7516    0.4199   -0.0341 H   0  0  0  0  0  0  0  0  0  0  0  0
    1.3804   -1.1918   -0.1361 C   0  0  0  0  0  0  0  0  0  0  0  0
    2.0422   -1.9481    0.3155 H   0  0  0  0  0  0  0  0  0  0  0  0
    0.0868   -1.5949    0.2319 O   0  0  0  0  0  0  0  0  0  0  0  0
    1.5398   -1.1552   -1.5206 O   0  0  0  0  0  0  0  0  0  0  0  0
    1.8802    0.0438    1.8135 O   0  0  0  0  0  0  0  0  0  0  0  0
    1.2166    2.1046   -1.0287 O   0  0  0  0  0  0  0  0  0  0  0  0
   -1.6187    1.5637   -0.3833 O   0  0  0  0  0  0  0  0  0  0  0  0
   -3.3072   -0.4282    0.6584 O   0  0  0  0  0  0  0  0  0  0  0  0
   -2.3032   -2.1645    0.5142 H   0  0  0  0  0  0  0  0  0  0  0  0
   -2.3727   -1.2305   -1.0011 H   0  0  0  0  0  0  0  0  0  0  0  0
    1.3651   -2.0333   -1.8929 H   0  0  0  0  0  0  0  0  0  0  0  0
    2.3633    0.7930    2.1930 H   0  0  0  0  0  0  0  0  0  0  0  0
    2.0065    2.5934   -0.7578 H   0  0  0  0  0  0  0  0  0  0  0  0
   -1.4142    2.3223   -0.9499 H   0  0  0  0  0  0  0  0  0  0  0  0
   -3.2188    0.4955    0.3692 H   0  0  0  0  0  0  0  0  0  0  0  0
  1  2  1  0  0  0  0
  2  3  1  0  0  0  0
  2  4  1  0  0  0  0
  4  5  1  0  0  0  0
  4  6  1  0  0  0  0
  6  7  1  0  0  0  0
  6  8  1  0  0  0  0
  8  9  1  0  0  0  0
  8 10  1  0  0  0  0
 10 11  1  0  0  0  0
  2 12  1  0  0  0  0
 10 12  1  0  0  0  0
 10 13  1  0  0  0  0
  8 14  1  0  0  0  0
  6 15  1  0  0  0  0
  4 16  1  0  0  0  0
  1 17  1  0  0  0  0
  1 18  1  0  0  0  0
  1 19  1  0  0  0  0
 13 20  1  0  0  0  0
 14 21  1  0  0  0  0
 15 22  1  0  0  0  0
 16 23  1  0  0  0  0
 17 24  1  0  0  0  0
M  END
