 xtb: 6.7.1 (edcfbbe)
          04042523563D

 17 16  0     0  0            999 V2000
    2.0457    0.9566   -0.6139 C   0  0  0  0  0  0  0  0  0  0  0  0
    1.1619   -0.1916   -0.1449 C   0  0  0  0  0  0  0  0  0  0  0  0
    1.8126   -1.0012    0.9697 C   0  0  0  0  0  0  0  0  0  0  0  0
   -0.0649    0.3789    0.3674 O   0  0  0  0  0  0  0  0  0  0  0  0
   -1.2303   -0.0126   -0.1211 C   0  0  0  0  0  0  0  0  0  0  0  0
   -1.3557   -0.8512   -0.9926 O   0  0  0  0  0  0  0  0  0  0  0  0
   -2.3704    0.7156    0.5283 C   0  0  0  0  0  0  0  0  0  0  0  0
    1.5507    1.5165   -1.4031 H   0  0  0  0  0  0  0  0  0  0  0  0
    2.2490    1.6258    0.2174 H   0  0  0  0  0  0  0  0  0  0  0  0
    2.9818    0.5618   -0.9948 H   0  0  0  0  0  0  0  0  0  0  0  0
    0.8961   -0.8443   -0.9859 H   0  0  0  0  0  0  0  0  0  0  0  0
    2.0229   -0.3563    1.8184 H   0  0  0  0  0  0  0  0  0  0  0  0
    2.7396   -1.4354    0.6096 H   0  0  0  0  0  0  0  0  0  0  0  0
    1.1498   -1.8013    1.2904 H   0  0  0  0  0  0  0  0  0  0  0  0
   -2.8143    1.3866   -0.2035 H   0  0  0  0  0  0  0  0  0  0  0  0
   -2.0109    1.2821    1.3802 H   0  0  0  0  0  0  0  0  0  0  0  0
   -3.1293   -0.0011    0.8288 H   0  0  0  0  0  0  0  0  0  0  0  0
  1  2  1  0  0  0  0
  2  3  1  0  0  0  0
  2  4  1  0  0  0  0
  4  5  1  0  0  0  0
  5  6  2  0  0  0  0
  5  7  1  0  0  0  0
  1  8  1  0  0  0  0
  1  9  1  0  0  0  0
  1 10  1  0  0  0  0
  2 11  1  0  0  0  0
  3 12  1  0  0  0  0
  3 13  1  0  0  0  0
  3 14  1  0  0  0  0
  7 15  1  0  0  0  0
  7 16  1  0  0  0  0
  7 17  1  0  0  0  0
M  END
