 xtb: 6.7.1 (edcfbbe)
          04062518003D

 24 24  0     0  0            999 V2000
   -1.5018   -0.8562   -1.0341 C   0  0  0  0  0  0  0  0  0  0  0  0
   -1.2238   -0.3701    0.3970 C   0  0  0  0  0  0  0  0  0  0  0  0
   -2.1411   -0.5416    0.9715 H   0  0  0  0  0  0  0  0  0  0  0  0
   -0.8601    1.1169    0.4866 C   0  0  0  0  0  0  0  0  0  0  0  0
   -1.5337    1.7114   -0.1370 H   0  0  0  0  0  0  0  0  0  0  0  0
    0.5839    1.3719   -0.0071 C   0  0  0  0  0  0  0  0  0  0  0  0
    1.1361    1.8657    0.8064 H   0  0  0  0  0  0  0  0  0  0  0  0
    1.3533    0.0915   -0.3729 C   0  0  0  0  0  0  0  0  0  0  0  0
    1.0516   -0.2251   -1.3801 H   0  0  0  0  0  0  0  0  0  0  0  0
    1.0717   -1.0779    0.5835 C   0  0  0  0  0  0  0  0  0  0  0  0
    1.7359   -0.9879    1.4593 H   0  0  0  0  0  0  0  0  0  0  0  0
   -0.2350   -1.1115    1.1013 O   0  0  0  0  0  0  0  0  0  0  0  0
    1.3582   -2.2484   -0.1248 O   0  0  0  0  0  0  0  0  0  0  0  0
    2.7219    0.4210   -0.3610 O   0  0  0  0  0  0  0  0  0  0  0  0
    0.5101    2.2202   -1.1276 O   0  0  0  0  0  0  0  0  0  0  0  0
   -1.0385    1.5835    1.8013 O   0  0  0  0  0  0  0  0  0  0  0  0
   -2.8990   -0.9882   -1.1710 O   0  0  0  0  0  0  0  0  0  0  0  0
   -1.0038   -1.8223   -1.1839 H   0  0  0  0  0  0  0  0  0  0  0  0
   -1.1170   -0.1305   -1.7603 H   0  0  0  0  0  0  0  0  0  0  0  0
    1.2448   -3.0205    0.4506 H   0  0  0  0  0  0  0  0  0  0  0  0
    3.2389   -0.3299   -0.6868 H   0  0  0  0  0  0  0  0  0  0  0  0
    1.4073    2.4738   -1.3908 H   0  0  0  0  0  0  0  0  0  0  0  0
   -0.6645    0.9359    2.4181 H   0  0  0  0  0  0  0  0  0  0  0  0
   -3.1100   -1.2618   -2.0750 H   0  0  0  0  0  0  0  0  0  0  0  0
  1  2  1  0  0  0  0
  2  3  1  0  0  0  0
  2  4  1  0  0  0  0
  4  5  1  0  0  0  0
  4  6  1  0  0  0  0
  6  7  1  0  0  0  0
  6  8  1  0  0  0  0
  8  9  1  0  0  0  0
  8 10  1  0  0  0  0
 10 11  1  0  0  0  0
  2 12  1  0  0  0  0
 10 12  1  0  0  0  0
 10 13  1  0  0  0  0
  8 14  1  0  0  0  0
  6 15  1  0  0  0  0
  4 16  1  0  0  0  0
  1 17  1  0  0  0  0
  1 18  1  0  0  0  0
  1 19  1  0  0  0  0
 13 20  1  0  0  0  0
 14 21  1  0  0  0  0
 15 22  1  0  0  0  0
 16 23  1  0  0  0  0
 17 24  1  0  0  0  0
M  END
