 xtb: 6.7.1 (edcfbbe)
          04032521323D

 24 26  0     0  0            999 V2000
   -3.5334   -0.2977   -0.0003 C   0  0  0  0  0  0  0  0  0  0  0  0
   -2.8609   -1.5205    0.0003 C   0  0  0  0  0  0  0  0  0  0  0  0
   -1.4882   -1.5604    0.0005 C   0  0  0  0  0  0  0  0  0  0  0  0
   -0.7217   -0.3835    0.0002 C   0  0  0  0  0  0  0  0  0  0  0  0
   -1.4099    0.8533   -0.0002 C   0  0  0  0  0  0  0  0  0  0  0  0
   -2.8142    0.8696   -0.0005 C   0  0  0  0  0  0  0  0  0  0  0  0
   -0.6757    2.0739    0.0000 C   0  0  0  0  0  0  0  0  0  0  0  0
    0.6757    2.0739    0.0004 C   0  0  0  0  0  0  0  0  0  0  0  0
    1.4099    0.8533    0.0002 C   0  0  0  0  0  0  0  0  0  0  0  0
    0.7218   -0.3835    0.0001 C   0  0  0  0  0  0  0  0  0  0  0  0
    1.4882   -1.5604   -0.0003 C   0  0  0  0  0  0  0  0  0  0  0  0
    2.8609   -1.5205   -0.0004 C   0  0  0  0  0  0  0  0  0  0  0  0
    3.5334   -0.2976   -0.0001 C   0  0  0  0  0  0  0  0  0  0  0  0
    2.8142    0.8696    0.0001 C   0  0  0  0  0  0  0  0  0  0  0  0
   -4.6128   -0.2764   -0.0006 H   0  0  0  0  0  0  0  0  0  0  0  0
   -3.4256   -2.4409    0.0006 H   0  0  0  0  0  0  0  0  0  0  0  0
   -1.0002   -2.5218    0.0010 H   0  0  0  0  0  0  0  0  0  0  0  0
   -3.3200    1.8244   -0.0009 H   0  0  0  0  0  0  0  0  0  0  0  0
   -1.2306    3.0010   -0.0002 H   0  0  0  0  0  0  0  0  0  0  0  0
    1.2306    3.0010    0.0004 H   0  0  0  0  0  0  0  0  0  0  0  0
    1.0001   -2.5218   -0.0003 H   0  0  0  0  0  0  0  0  0  0  0  0
    3.4256   -2.4409   -0.0008 H   0  0  0  0  0  0  0  0  0  0  0  0
    4.6128   -0.2764   -0.0004 H   0  0  0  0  0  0  0  0  0  0  0  0
    3.3200    1.8244    0.0001 H   0  0  0  0  0  0  0  0  0  0  0  0
  1  2  4  0  0  0  0
  2  3  2  0  0  0  0
  3  4  4  0  0  0  0
  4  5  4  0  0  0  0
  1  6  2  0  0  0  0
  5  6  4  0  0  0  0
  5  7  4  0  0  0  0
  7  8  2  0  0  0  0
  8  9  4  0  0  0  0
  4 10  1  0  0  0  0
  9 10  4  0  0  0  0
 10 11  4  0  0  0  0
 11 12  2  0  0  0  0
 12 13  4  0  0  0  0
  9 14  4  0  0  0  0
 13 14  2  0  0  0  0
  1 15  1  0  0  0  0
  2 16  1  0  0  0  0
  3 17  1  0  0  0  0
  6 18  1  0  0  0  0
  7 19  1  0  0  0  0
  8 20  1  0  0  0  0
 11 21  1  0  0  0  0
 12 22  1  0  0  0  0
 13 23  1  0  0  0  0
 14 24  1  0  0  0  0
M  END
