 xtb: 6.7.1 (edcfbbe)
          04062518003D

 24 24  0     0  0            999 V2000
   -2.4430   -1.0502   -0.3480 C   0  0  0  0  0  0  0  0  0  0  0  0
   -1.0799   -0.5626    0.1522 C   0  0  0  0  0  0  0  0  0  0  0  0
   -1.1198   -0.5446    1.2533 H   0  0  0  0  0  0  0  0  0  0  0  0
   -0.7259    0.8455   -0.3658 C   0  0  0  0  0  0  0  0  0  0  0  0
   -0.6549    0.7990   -1.4602 H   0  0  0  0  0  0  0  0  0  0  0  0
    0.6488    1.2560    0.2052 C   0  0  0  0  0  0  0  0  0  0  0  0
    0.6000    1.3085    1.2991 H   0  0  0  0  0  0  0  0  0  0  0  0
    1.6824    0.1856   -0.1814 C   0  0  0  0  0  0  0  0  0  0  0  0
    1.8053    0.1853   -1.2774 H   0  0  0  0  0  0  0  0  0  0  0  0
    1.1790   -1.2099    0.2561 C   0  0  0  0  0  0  0  0  0  0  0  0
    1.1563   -1.2373    1.3597 H   0  0  0  0  0  0  0  0  0  0  0  0
   -0.0940   -1.4848   -0.2725 O   0  0  0  0  0  0  0  0  0  0  0  0
    2.0473   -2.2068   -0.1512 O   0  0  0  0  0  0  0  0  0  0  0  0
    2.9049    0.4761    0.4447 O   0  0  0  0  0  0  0  0  0  0  0  0
    1.0247    2.5459   -0.1913 O   0  0  0  0  0  0  0  0  0  0  0  0
   -1.7227    1.7912   -0.1088 O   0  0  0  0  0  0  0  0  0  0  0  0
   -3.4167   -0.6324    0.5776 O   0  0  0  0  0  0  0  0  0  0  0  0
   -2.3998   -2.1449   -0.4110 H   0  0  0  0  0  0  0  0  0  0  0  0
   -2.6390   -0.6372   -1.3431 H   0  0  0  0  0  0  0  0  0  0  0  0
    1.8203   -2.4761   -1.0556 H   0  0  0  0  0  0  0  0  0  0  0  0
    3.5014   -0.2811    0.3343 H   0  0  0  0  0  0  0  0  0  0  0  0
    1.0881    2.5938   -1.1562 H   0  0  0  0  0  0  0  0  0  0  0  0
   -1.8609    1.8818    0.8445 H   0  0  0  0  0  0  0  0  0  0  0  0
   -4.2974   -0.8291    0.2293 H   0  0  0  0  0  0  0  0  0  0  0  0
  1  2  1  0  0  0  0
  2  3  1  0  0  0  0
  2  4  1  0  0  0  0
  4  5  1  0  0  0  0
  4  6  1  0  0  0  0
  6  7  1  0  0  0  0
  6  8  1  0  0  0  0
  8  9  1  0  0  0  0
  8 10  1  0  0  0  0
 10 11  1  0  0  0  0
  2 12  1  0  0  0  0
 10 12  1  0  0  0  0
 10 13  1  0  0  0  0
  8 14  1  0  0  0  0
  6 15  1  0  0  0  0
  4 16  1  0  0  0  0
  1 17  1  0  0  0  0
  1 18  1  0  0  0  0
  1 19  1  0  0  0  0
 13 20  1  0  0  0  0
 14 21  1  0  0  0  0
 15 22  1  0  0  0  0
 16 23  1  0  0  0  0
 17 24  1  0  0  0  0
M  END
