 xtb: 6.7.1 (edcfbbe)
          04042520213D

 15 14  0     0  0            999 V2000
    2.0668    0.0325   -0.1199 C   0  0  0  0  0  0  0  0  0  0  0  0
    0.7597    0.6681    0.3380 C   0  0  0  0  0  0  0  0  0  0  0  0
   -0.4570    0.0213   -0.3299 C   0  0  0  0  0  0  0  0  0  0  0  0
   -0.3059    0.0281   -1.4226 H   0  0  0  0  0  0  0  0  0  0  0  0
   -1.7403    0.7824    0.0041 C   0  0  0  0  0  0  0  0  0  0  0  0
   -0.5236   -1.3239    0.1189 O   0  0  0  0  0  0  0  0  0  0  0  0
    2.2083    0.1797   -1.1884 H   0  0  0  0  0  0  0  0  0  0  0  0
    2.0475   -1.0353    0.0827 H   0  0  0  0  0  0  0  0  0  0  0  0
    2.9083    0.4744    0.4068 H   0  0  0  0  0  0  0  0  0  0  0  0
    0.7623    1.7335    0.1049 H   0  0  0  0  0  0  0  0  0  0  0  0
    0.6548    0.5486    1.4176 H   0  0  0  0  0  0  0  0  0  0  0  0
   -2.5973    0.3224   -0.4827 H   0  0  0  0  0  0  0  0  0  0  0  0
   -1.9027    0.7751    1.0793 H   0  0  0  0  0  0  0  0  0  0  0  0
   -1.6611    1.8110   -0.3346 H   0  0  0  0  0  0  0  0  0  0  0  0
   -1.3009   -1.7489   -0.2665 H   0  0  0  0  0  0  0  0  0  0  0  0
  1  2  1  0  0  0  0
  2  3  1  0  0  0  0
  3  4  1  0  0  0  0
  3  5  1  0  0  0  0
  3  6  1  0  0  0  0
  1  7  1  0  0  0  0
  1  8  1  0  0  0  0
  1  9  1  0  0  0  0
  2 10  1  0  0  0  0
  2 11  1  0  0  0  0
  5 12  1  0  0  0  0
  5 13  1  0  0  0  0
  5 14  1  0  0  0  0
  6 15  1  0  0  0  0
M  END
