 xtb: 6.7.1 (edcfbbe)
          04032521553D

 12 11  0     0  0            999 V2000
   -1.6553    1.2398   -0.0113 C   0  0  0  0  0  0  0  0  0  0  0  0
   -0.9508   -0.0224    0.4735 C   0  0  0  0  0  0  0  0  0  0  0  0
   -0.9393   -0.0769    1.5678 H   0  0  0  0  0  0  0  0  0  0  0  0
    0.5227    0.0094    0.0313 C   0  0  0  0  0  0  0  0  0  0  0  0
    1.1819    1.0794    0.5107 F   0  0  0  0  0  0  0  0  0  0  0  0
    1.2108   -1.0701    0.4407 F   0  0  0  0  0  0  0  0  0  0  0  0
    0.6587    0.0526   -1.3072 F   0  0  0  0  0  0  0  0  0  0  0  0
   -1.5439   -1.2088    0.0344 O   0  0  0  0  0  0  0  0  0  0  0  0
   -2.6957    1.2023    0.2960 H   0  0  0  0  0  0  0  0  0  0  0  0
   -1.6026    1.3090   -1.0959 H   0  0  0  0  0  0  0  0  0  0  0  0
   -1.1871    2.1187    0.4219 H   0  0  0  0  0  0  0  0  0  0  0  0
   -1.7569   -1.1519   -0.9106 H   0  0  0  0  0  0  0  0  0  0  0  0
  1  2  1  0  0  0  0
  2  3  1  0  0  0  0
  2  4  1  0  0  0  0
  4  5  1  0  0  0  0
  4  6  1  0  0  0  0
  4  7  1  0  0  0  0
  2  8  1  0  0  0  0
  1  9  1  0  0  0  0
  1 10  1  0  0  0  0
  1 11  1  0  0  0  0
  8 12  1  0  0  0  0
M  END
