 xtb: 6.7.1 (edcfbbe)
          04062518003D

 24 24  0     0  0            999 V2000
   -2.5417   -0.9212    0.2844 C   0  0  0  0  0  0  0  0  0  0  0  0
   -1.1204   -0.4716    0.6290 C   0  0  0  0  0  0  0  0  0  0  0  0
   -1.0253   -0.3993    1.7235 H   0  0  0  0  0  0  0  0  0  0  0  0
   -0.8258    0.9108    0.0302 C   0  0  0  0  0  0  0  0  0  0  0  0
   -1.0685    0.8760   -1.0438 H   0  0  0  0  0  0  0  0  0  0  0  0
    0.6599    1.2781    0.1997 C   0  0  0  0  0  0  0  0  0  0  0  0
    0.8770    1.4159    1.2656 H   0  0  0  0  0  0  0  0  0  0  0  0
    1.5336    0.1447   -0.3389 C   0  0  0  0  0  0  0  0  0  0  0  0
    1.3523    0.0306   -1.4214 H   0  0  0  0  0  0  0  0  0  0  0  0
    1.1212   -1.1699    0.3604 C   0  0  0  0  0  0  0  0  0  0  0  0
    1.3267   -1.0695    1.4413 H   0  0  0  0  0  0  0  0  0  0  0  0
   -0.2325   -1.4539    0.1337 O   0  0  0  0  0  0  0  0  0  0  0  0
    1.8729   -2.2378   -0.0988 O   0  0  0  0  0  0  0  0  0  0  0  0
    2.8860    0.4313   -0.0968 O   0  0  0  0  0  0  0  0  0  0  0  0
    0.9231    2.5260   -0.3912 O   0  0  0  0  0  0  0  0  0  0  0  0
   -1.6442    1.8470    0.6853 O   0  0  0  0  0  0  0  0  0  0  0  0
   -2.7025   -0.9173   -1.1147 O   0  0  0  0  0  0  0  0  0  0  0  0
   -3.2339   -0.2188    0.7625 H   0  0  0  0  0  0  0  0  0  0  0  0
   -2.6858   -1.9288    0.6899 H   0  0  0  0  0  0  0  0  0  0  0  0
    1.4247   -2.6279   -0.8665 H   0  0  0  0  0  0  0  0  0  0  0  0
    3.4031   -0.3809   -0.2180 H   0  0  0  0  0  0  0  0  0  0  0  0
    1.0120    2.4279   -1.3503 H   0  0  0  0  0  0  0  0  0  0  0  0
   -1.3121    2.7346    0.4753 H   0  0  0  0  0  0  0  0  0  0  0  0
   -3.5931   -1.2285   -1.3290 H   0  0  0  0  0  0  0  0  0  0  0  0
  1  2  1  0  0  0  0
  2  3  1  0  0  0  0
  2  4  1  0  0  0  0
  4  5  1  0  0  0  0
  4  6  1  0  0  0  0
  6  7  1  0  0  0  0
  6  8  1  0  0  0  0
  8  9  1  0  0  0  0
  8 10  1  0  0  0  0
 10 11  1  0  0  0  0
  2 12  1  0  0  0  0
 10 12  1  0  0  0  0
 10 13  1  0  0  0  0
  8 14  1  0  0  0  0
  6 15  1  0  0  0  0
  4 16  1  0  0  0  0
  1 17  1  0  0  0  0
  1 18  1  0  0  0  0
  1 19  1  0  0  0  0
 13 20  1  0  0  0  0
 14 21  1  0  0  0  0
 15 22  1  0  0  0  0
 16 23  1  0  0  0  0
 17 24  1  0  0  0  0
M  END
