 xtb: 6.7.1 (edcfbbe)
          04042519493D

 16 16  0     0  0            999 V2000
   -2.5141   -0.2079    1.0140 C   0  0  0  0  0  0  0  0  0  0  0  0
   -1.8508    0.2390   -0.6256 S   0  0  0  0  0  0  0  0  0  0  0  0
   -0.1044    0.0750   -0.2504 C   0  0  0  0  0  0  0  0  0  0  0  0
    0.5988    1.1704    0.2221 C   0  0  0  0  0  0  0  0  0  0  0  0
    1.9437    1.0370    0.5216 C   0  0  0  0  0  0  0  0  0  0  0  0
    2.5771   -0.1823    0.3443 C   0  0  0  0  0  0  0  0  0  0  0  0
    1.8680   -1.2714   -0.1356 C   0  0  0  0  0  0  0  0  0  0  0  0
    0.5229   -1.1454   -0.4373 C   0  0  0  0  0  0  0  0  0  0  0  0
   -2.1500    0.5004    1.7513 H   0  0  0  0  0  0  0  0  0  0  0  0
   -2.2051   -1.2186    1.2606 H   0  0  0  0  0  0  0  0  0  0  0  0
   -3.5935   -0.1494    0.9300 H   0  0  0  0  0  0  0  0  0  0  0  0
    0.0923    2.1151    0.3492 H   0  0  0  0  0  0  0  0  0  0  0  0
    2.4959    1.8872    0.8913 H   0  0  0  0  0  0  0  0  0  0  0  0
    3.6258   -0.2833    0.5781 H   0  0  0  0  0  0  0  0  0  0  0  0
    2.3610   -2.2208   -0.2779 H   0  0  0  0  0  0  0  0  0  0  0  0
   -0.0418   -1.9830   -0.8176 H   0  0  0  0  0  0  0  0  0  0  0  0
  1  2  1  0  0  0  0
  2  3  1  0  0  0  0
  3  4  4  0  0  0  0
  4  5  4  0  0  0  0
  5  6  4  0  0  0  0
  6  7  4  0  0  0  0
  3  8  4  0  0  0  0
  7  8  4  0  0  0  0
  1  9  1  0  0  0  0
  1 10  1  0  0  0  0
  1 11  1  0  0  0  0
  4 12  1  0  0  0  0
  5 13  1  0  0  0  0
  6 14  1  0  0  0  0
  7 15  1  0  0  0  0
  8 16  1  0  0  0  0
M  END
