 xtb: 6.7.1 (edcfbbe)
          04062518003D

 24 24  0     0  0            999 V2000
   -1.7626   -1.0069   -0.7009 C   0  0  0  0  0  0  0  0  0  0  0  0
   -1.0621   -0.4439    0.5530 C   0  0  0  0  0  0  0  0  0  0  0  0
   -1.7547   -0.5335    1.3984 H   0  0  0  0  0  0  0  0  0  0  0  0
   -0.6814    1.0418    0.4190 C   0  0  0  0  0  0  0  0  0  0  0  0
   -1.5139    1.5704   -0.0565 H   0  0  0  0  0  0  0  0  0  0  0  0
    0.5701    1.2416   -0.4552 C   0  0  0  0  0  0  0  0  0  0  0  0
    0.9175    2.2735   -0.2828 H   0  0  0  0  0  0  0  0  0  0  0  0
    1.7029    0.3083    0.0142 C   0  0  0  0  0  0  0  0  0  0  0  0
    2.4943    0.2988   -0.7491 H   0  0  0  0  0  0  0  0  0  0  0  0
    1.2175   -1.1452    0.1733 C   0  0  0  0  0  0  0  0  0  0  0  0
    1.9558   -1.6968    0.7807 H   0  0  0  0  0  0  0  0  0  0  0  0
    0.0466   -1.2535    0.9388 O   0  0  0  0  0  0  0  0  0  0  0  0
    1.1166   -1.7018   -1.0989 O   0  0  0  0  0  0  0  0  0  0  0  0
    2.1734    0.8268    1.2335 O   0  0  0  0  0  0  0  0  0  0  0  0
    0.2139    1.0525   -1.7970 O   0  0  0  0  0  0  0  0  0  0  0  0
   -0.5217    1.6500    1.6760 O   0  0  0  0  0  0  0  0  0  0  0  0
   -3.0886   -0.5511   -0.8261 O   0  0  0  0  0  0  0  0  0  0  0  0
   -1.8346   -2.0909   -0.5813 H   0  0  0  0  0  0  0  0  0  0  0  0
   -1.1766   -0.7768   -1.5948 H   0  0  0  0  0  0  0  0  0  0  0  0
    0.9009   -2.6441   -1.0362 H   0  0  0  0  0  0  0  0  0  0  0  0
    2.9622    0.3471    1.5252 H   0  0  0  0  0  0  0  0  0  0  0  0
    0.9675    1.2461   -2.3725 H   0  0  0  0  0  0  0  0  0  0  0  0
    0.3085    1.3365    2.0718 H   0  0  0  0  0  0  0  0  0  0  0  0
   -3.0911    0.3595   -1.1485 H   0  0  0  0  0  0  0  0  0  0  0  0
  1  2  1  0  0  0  0
  2  3  1  0  0  0  0
  2  4  1  0  0  0  0
  4  5  1  0  0  0  0
  4  6  1  0  0  0  0
  6  7  1  0  0  0  0
  6  8  1  0  0  0  0
  8  9  1  0  0  0  0
  8 10  1  0  0  0  0
 10 11  1  0  0  0  0
  2 12  1  0  0  0  0
 10 12  1  0  0  0  0
 10 13  1  0  0  0  0
  8 14  1  0  0  0  0
  6 15  1  0  0  0  0
  4 16  1  0  0  0  0
  1 17  1  0  0  0  0
  1 18  1  0  0  0  0
  1 19  1  0  0  0  0
 13 20  1  0  0  0  0
 14 21  1  0  0  0  0
 15 22  1  0  0  0  0
 16 23  1  0  0  0  0
 17 24  1  0  0  0  0
M  END
