 xtb: 6.7.1 (edcfbbe)
          04062518003D

 24 24  0     0  0            999 V2000
   -2.2212   -0.6162   -0.7118 C   0  0  0  0  0  0  0  0  0  0  0  0
   -1.3854   -0.4865    0.5817 C   0  0  0  0  0  0  0  0  0  0  0  0
   -2.0616   -0.7540    1.4066 H   0  0  0  0  0  0  0  0  0  0  0  0
   -0.8664    0.9379    0.8368 C   0  0  0  0  0  0  0  0  0  0  0  0
   -1.6780    1.6451    0.6116 H   0  0  0  0  0  0  0  0  0  0  0  0
    0.3229    1.3221   -0.0614 C   0  0  0  0  0  0  0  0  0  0  0  0
    0.9756    1.9703    0.5396 H   0  0  0  0  0  0  0  0  0  0  0  0
    1.1484    0.0930   -0.4681 C   0  0  0  0  0  0  0  0  0  0  0  0
    0.7749   -0.2991   -1.4280 H   0  0  0  0  0  0  0  0  0  0  0  0
    0.9739   -1.0089    0.5916 C   0  0  0  0  0  0  0  0  0  0  0  0
    1.2808   -0.6167    1.5753 H   0  0  0  0  0  0  0  0  0  0  0  0
   -0.3517   -1.4707    0.6173 O   0  0  0  0  0  0  0  0  0  0  0  0
    1.7964   -2.0927    0.3226 O   0  0  0  0  0  0  0  0  0  0  0  0
    2.4981    0.4714   -0.5862 O   0  0  0  0  0  0  0  0  0  0  0  0
   -0.1790    2.0220   -1.1763 O   0  0  0  0  0  0  0  0  0  0  0  0
   -0.4360    1.0945    2.1696 O   0  0  0  0  0  0  0  0  0  0  0  0
   -1.5606   -0.2869   -1.9034 O   0  0  0  0  0  0  0  0  0  0  0  0
   -3.1256   -0.0066   -0.5877 H   0  0  0  0  0  0  0  0  0  0  0  0
   -2.5105   -1.6645   -0.8152 H   0  0  0  0  0  0  0  0  0  0  0  0
    1.3404   -2.6834   -0.2983 H   0  0  0  0  0  0  0  0  0  0  0  0
    3.0484   -0.3257   -0.5305 H   0  0  0  0  0  0  0  0  0  0  0  0
    0.5639    2.3651   -1.6937 H   0  0  0  0  0  0  0  0  0  0  0  0
   -1.1863    1.0005    2.7750 H   0  0  0  0  0  0  0  0  0  0  0  0
   -1.3124    0.6570   -1.8849 H   0  0  0  0  0  0  0  0  0  0  0  0
  1  2  1  0  0  0  0
  2  3  1  0  0  0  0
  2  4  1  0  0  0  0
  4  5  1  0  0  0  0
  4  6  1  0  0  0  0
  6  7  1  0  0  0  0
  6  8  1  0  0  0  0
  8  9  1  0  0  0  0
  8 10  1  0  0  0  0
 10 11  1  0  0  0  0
  2 12  1  0  0  0  0
 10 12  1  0  0  0  0
 10 13  1  0  0  0  0
  8 14  1  0  0  0  0
  6 15  1  0  0  0  0
  4 16  1  0  0  0  0
  1 17  1  0  0  0  0
  1 18  1  0  0  0  0
  1 19  1  0  0  0  0
 13 20  1  0  0  0  0
 14 21  1  0  0  0  0
 15 22  1  0  0  0  0
 16 23  1  0  0  0  0
 17 24  1  0  0  0  0
M  END
