 xtb: 6.7.1 (edcfbbe)
          04042519123D

 15 15  0     0  0            999 V2000
   -2.6770    0.0003   -0.4072 C   0  0  0  0  0  0  0  0  0  0  0  0
   -2.0199    1.1986   -0.1822 C   0  0  0  0  0  0  0  0  0  0  0  0
   -0.7113    1.1988    0.2668 C   0  0  0  0  0  0  0  0  0  0  0  0
   -0.0466   -0.0002    0.4993 C   0  0  0  0  0  0  0  0  0  0  0  0
   -0.7116   -1.1990    0.2664 C   0  0  0  0  0  0  0  0  0  0  0  0
   -2.0203   -1.1983   -0.1826 C   0  0  0  0  0  0  0  0  0  0  0  0
    1.3730   -0.0005    0.9597 C   0  0  0  0  0  0  0  0  0  0  0  0
    2.4761    0.0002   -0.4829 Cl  0  0  0  0  0  0  0  0  0  0  0  0
   -3.6976    0.0005   -0.7580 H   0  0  0  0  0  0  0  0  0  0  0  0
   -2.5274    2.1349   -0.3574 H   0  0  0  0  0  0  0  0  0  0  0  0
   -0.1987    2.1337    0.4383 H   0  0  0  0  0  0  0  0  0  0  0  0
   -0.1993   -2.1341    0.4376 H   0  0  0  0  0  0  0  0  0  0  0  0
   -2.5279   -2.1345   -0.3585 H   0  0  0  0  0  0  0  0  0  0  0  0
    1.6254   -0.8973    1.5213 H   0  0  0  0  0  0  0  0  0  0  0  0
    1.6254    0.8954    1.5225 H   0  0  0  0  0  0  0  0  0  0  0  0
  1  2  4  0  0  0  0
  2  3  4  0  0  0  0
  3  4  4  0  0  0  0
  4  5  4  0  0  0  0
  1  6  4  0  0  0  0
  5  6  4  0  0  0  0
  4  7  1  0  0  0  0
  7  8  1  0  0  0  0
  1  9  1  0  0  0  0
  2 10  1  0  0  0  0
  3 11  1  0  0  0  0
  5 12  1  0  0  0  0
  6 13  1  0  0  0  0
  7 14  1  0  0  0  0
  7 15  1  0  0  0  0
M  END
