 xtb: 6.7.1 (edcfbbe)
          04052502593D

 19 19  0     0  0            999 V2000
   -2.6420    0.6161    0.7607 C   0  0  0  0  0  0  0  0  0  0  0  0
   -1.8467    0.6278   -0.5486 C   0  0  0  0  0  0  0  0  0  0  0  0
   -0.3816    0.3856   -0.2950 C   0  0  0  0  0  0  0  0  0  0  0  0
    0.4975    1.4571   -0.2139 C   0  0  0  0  0  0  0  0  0  0  0  0
    1.8418    1.2758    0.0549 C   0  0  0  0  0  0  0  0  0  0  0  0
    2.3327   -0.0037    0.2502 C   0  0  0  0  0  0  0  0  0  0  0  0
    1.4788   -1.0860    0.1749 C   0  0  0  0  0  0  0  0  0  0  0  0
    0.1258   -0.9015   -0.0922 C   0  0  0  0  0  0  0  0  0  0  0  0
   -0.6491   -2.0233   -0.1404 O   0  0  0  0  0  0  0  0  0  0  0  0
   -2.3023    1.4210    1.4082 H   0  0  0  0  0  0  0  0  0  0  0  0
   -2.5061   -0.3220    1.2943 H   0  0  0  0  0  0  0  0  0  0  0  0
   -3.7019    0.7544    0.5623 H   0  0  0  0  0  0  0  0  0  0  0  0
   -1.9654    1.6008   -1.0278 H   0  0  0  0  0  0  0  0  0  0  0  0
   -2.2510   -0.1209   -1.2355 H   0  0  0  0  0  0  0  0  0  0  0  0
    0.1138    2.4556   -0.3663 H   0  0  0  0  0  0  0  0  0  0  0  0
    2.5022    2.1274    0.1112 H   0  0  0  0  0  0  0  0  0  0  0  0
    3.3794   -0.1616    0.4607 H   0  0  0  0  0  0  0  0  0  0  0  0
    1.8347   -2.0938    0.3235 H   0  0  0  0  0  0  0  0  0  0  0  0
   -1.5583   -1.7997   -0.3872 H   0  0  0  0  0  0  0  0  0  0  0  0
  1  2  1  0  0  0  0
  2  3  1  0  0  0  0
  3  4  4  0  0  0  0
  4  5  4  0  0  0  0
  5  6  4  0  0  0  0
  6  7  4  0  0  0  0
  3  8  4  0  0  0  0
  7  8  4  0  0  0  0
  8  9  1  0  0  0  0
  1 10  1  0  0  0  0
  1 11  1  0  0  0  0
  1 12  1  0  0  0  0
  2 13  1  0  0  0  0
  2 14  1  0  0  0  0
  4 15  1  0  0  0  0
  5 16  1  0  0  0  0
  6 17  1  0  0  0  0
  7 18  1  0  0  0  0
  9 19  1  0  0  0  0
M  END
