 xtb: 6.7.1 (edcfbbe)
          04032521413D

 24 24  0     0  0            999 V2000
   -2.0013   -0.7321    1.2567 C   0  0  0  0  0  0  0  0  0  0  0  0
   -1.5150    0.0044    0.0000 C   0  0  0  0  0  0  0  0  0  0  0  0
   -2.0021   -0.7326   -1.2561 C   0  0  0  0  0  0  0  0  0  0  0  0
   -2.1325    1.4057   -0.0001 C   0  0  0  0  0  0  0  0  0  0  0  0
    0.0061    0.0323   -0.0003 C   0  0  0  0  0  0  0  0  0  0  0  0
    0.7409    1.2118   -0.0002 C   0  0  0  0  0  0  0  0  0  0  0  0
    2.1263    1.1933   -0.0000 C   0  0  0  0  0  0  0  0  0  0  0  0
    2.8118   -0.0070    0.0001 C   0  0  0  0  0  0  0  0  0  0  0  0
    2.0952   -1.1914   -0.0000 C   0  0  0  0  0  0  0  0  0  0  0  0
    0.7132   -1.1681   -0.0002 C   0  0  0  0  0  0  0  0  0  0  0  0
   -3.0885   -0.7472    1.2832 H   0  0  0  0  0  0  0  0  0  0  0  0
   -1.6455   -1.7582    1.2773 H   0  0  0  0  0  0  0  0  0  0  0  0
   -1.6401   -0.2277    2.1505 H   0  0  0  0  0  0  0  0  0  0  0  0
   -1.6424   -0.2280   -2.1504 H   0  0  0  0  0  0  0  0  0  0  0  0
   -1.6456   -1.7584   -1.2770 H   0  0  0  0  0  0  0  0  0  0  0  0
   -3.0893   -0.7485   -1.2813 H   0  0  0  0  0  0  0  0  0  0  0  0
   -1.8386    1.9624   -0.8868 H   0  0  0  0  0  0  0  0  0  0  0  0
   -3.2171    1.3220    0.0002 H   0  0  0  0  0  0  0  0  0  0  0  0
   -1.8382    1.9627    0.8862 H   0  0  0  0  0  0  0  0  0  0  0  0
    0.2440    2.1680   -0.0003 H   0  0  0  0  0  0  0  0  0  0  0  0
    2.6706    2.1266    0.0001 H   0  0  0  0  0  0  0  0  0  0  0  0
    3.8916   -0.0212    0.0003 H   0  0  0  0  0  0  0  0  0  0  0  0
    2.6149   -2.1385   -0.0000 H   0  0  0  0  0  0  0  0  0  0  0  0
    0.1821   -2.1081   -0.0003 H   0  0  0  0  0  0  0  0  0  0  0  0
  1  2  1  0  0  0  0
  2  3  1  0  0  0  0
  2  4  1  0  0  0  0
  2  5  1  0  0  0  0
  5  6  4  0  0  0  0
  6  7  4  0  0  0  0
  7  8  4  0  0  0  0
  8  9  4  0  0  0  0
  5 10  4  0  0  0  0
  9 10  4  0  0  0  0
  1 11  1  0  0  0  0
  1 12  1  0  0  0  0
  1 13  1  0  0  0  0
  3 14  1  0  0  0  0
  3 15  1  0  0  0  0
  3 16  1  0  0  0  0
  4 17  1  0  0  0  0
  4 18  1  0  0  0  0
  4 19  1  0  0  0  0
  6 20  1  0  0  0  0
  7 21  1  0  0  0  0
  8 22  1  0  0  0  0
  9 23  1  0  0  0  0
 10 24  1  0  0  0  0
M  END
