 xtb: 6.7.1 (edcfbbe)
          04042520213D

 15 14  0     0  0            999 V2000
    1.8681    0.9259   -0.2736 C   0  0  0  0  0  0  0  0  0  0  0  0
    0.9644   -0.0752    0.4353 C   0  0  0  0  0  0  0  0  0  0  0  0
   -0.3801   -0.2849   -0.2753 C   0  0  0  0  0  0  0  0  0  0  0  0
   -0.1960   -0.5349   -1.3268 H   0  0  0  0  0  0  0  0  0  0  0  0
   -1.2787    0.9482   -0.1951 C   0  0  0  0  0  0  0  0  0  0  0  0
   -1.0430   -1.4310    0.2380 O   0  0  0  0  0  0  0  0  0  0  0  0
    1.4325    1.9211   -0.2626 H   0  0  0  0  0  0  0  0  0  0  0  0
    2.0273    0.6290   -1.3075 H   0  0  0  0  0  0  0  0  0  0  0  0
    2.8335    0.9714    0.2237 H   0  0  0  0  0  0  0  0  0  0  0  0
    0.7792    0.2592    1.4591 H   0  0  0  0  0  0  0  0  0  0  0  0
    1.4663   -1.0445    0.4841 H   0  0  0  0  0  0  0  0  0  0  0  0
   -1.4096    1.2558    0.8404 H   0  0  0  0  0  0  0  0  0  0  0  0
   -0.8434    1.7698   -0.7543 H   0  0  0  0  0  0  0  0  0  0  0  0
   -2.2529    0.7172   -0.6193 H   0  0  0  0  0  0  0  0  0  0  0  0
   -1.2677   -1.2696    1.1653 H   0  0  0  0  0  0  0  0  0  0  0  0
  1  2  1  0  0  0  0
  2  3  1  0  0  0  0
  3  4  1  0  0  0  0
  3  5  1  0  0  0  0
  3  6  1  0  0  0  0
  1  7  1  0  0  0  0
  1  8  1  0  0  0  0
  1  9  1  0  0  0  0
  2 10  1  0  0  0  0
  2 11  1  0  0  0  0
  5 12  1  0  0  0  0
  5 13  1  0  0  0  0
  5 14  1  0  0  0  0
  6 15  1  0  0  0  0
M  END
