 xtb: 6.7.1 (edcfbbe)
          04062518003D

 24 24  0     0  0            999 V2000
   -2.3355   -0.7784    0.7337 C   0  0  0  0  0  0  0  0  0  0  0  0
   -0.8685   -0.3262    0.7482 C   0  0  0  0  0  0  0  0  0  0  0  0
   -0.6045   -0.0118    1.7666 H   0  0  0  0  0  0  0  0  0  0  0  0
   -0.6268    0.8536   -0.1978 C   0  0  0  0  0  0  0  0  0  0  0  0
   -0.8495    0.5208   -1.2236 H   0  0  0  0  0  0  0  0  0  0  0  0
    0.8513    1.2993   -0.1201 C   0  0  0  0  0  0  0  0  0  0  0  0
    0.9248    2.1045    0.6195 H   0  0  0  0  0  0  0  0  0  0  0  0
    1.7634    0.1526    0.3618 C   0  0  0  0  0  0  0  0  0  0  0  0
    2.7505    0.3010   -0.0981 H   0  0  0  0  0  0  0  0  0  0  0  0
    1.1950   -1.1795   -0.1515 C   0  0  0  0  0  0  0  0  0  0  0  0
    1.8222   -2.0223    0.1789 H   0  0  0  0  0  0  0  0  0  0  0  0
   -0.0793   -1.4549    0.3714 O   0  0  0  0  0  0  0  0  0  0  0  0
    1.1845   -1.0926   -1.5460 O   0  0  0  0  0  0  0  0  0  0  0  0
    1.8430    0.1920    1.7614 O   0  0  0  0  0  0  0  0  0  0  0  0
    1.2968    1.8383   -1.3374 O   0  0  0  0  0  0  0  0  0  0  0  0
   -1.4952    1.8939    0.1774 O   0  0  0  0  0  0  0  0  0  0  0  0
   -2.7232   -1.3160   -0.5037 O   0  0  0  0  0  0  0  0  0  0  0  0
   -2.9656    0.0934    0.9122 H   0  0  0  0  0  0  0  0  0  0  0  0
   -2.4833   -1.5106    1.5361 H   0  0  0  0  0  0  0  0  0  0  0  0
    0.9480   -1.9461   -1.9392 H   0  0  0  0  0  0  0  0  0  0  0  0
    2.5288   -0.4149    2.0764 H   0  0  0  0  0  0  0  0  0  0  0  0
    1.3170    1.1301   -2.0008 H   0  0  0  0  0  0  0  0  0  0  0  0
   -1.3834    2.6323   -0.4385 H   0  0  0  0  0  0  0  0  0  0  0  0
   -2.1739   -2.0955   -0.6714 H   0  0  0  0  0  0  0  0  0  0  0  0
  1  2  1  0  0  0  0
  2  3  1  0  0  0  0
  2  4  1  0  0  0  0
  4  5  1  0  0  0  0
  4  6  1  0  0  0  0
  6  7  1  0  0  0  0
  6  8  1  0  0  0  0
  8  9  1  0  0  0  0
  8 10  1  0  0  0  0
 10 11  1  0  0  0  0
  2 12  1  0  0  0  0
 10 12  1  0  0  0  0
 10 13  1  0  0  0  0
  8 14  1  0  0  0  0
  6 15  1  0  0  0  0
  4 16  1  0  0  0  0
  1 17  1  0  0  0  0
  1 18  1  0  0  0  0
  1 19  1  0  0  0  0
 13 20  1  0  0  0  0
 14 21  1  0  0  0  0
 15 22  1  0  0  0  0
 16 23  1  0  0  0  0
 17 24  1  0  0  0  0
M  END
