 xtb: 6.7.1 (edcfbbe)
          04062518003D

 24 24  0     0  0            999 V2000
   -2.5223   -0.9945    0.3312 C   0  0  0  0  0  0  0  0  0  0  0  0
   -1.0799   -0.5146    0.5797 C   0  0  0  0  0  0  0  0  0  0  0  0
   -0.9267   -0.4412    1.6685 H   0  0  0  0  0  0  0  0  0  0  0  0
   -0.7998    0.8574   -0.0465 C   0  0  0  0  0  0  0  0  0  0  0  0
   -0.9144    0.7754   -1.1385 H   0  0  0  0  0  0  0  0  0  0  0  0
    0.6537    1.2466    0.2414 C   0  0  0  0  0  0  0  0  0  0  0  0
    0.7827    1.3550    1.3327 H   0  0  0  0  0  0  0  0  0  0  0  0
    1.5960    0.1458   -0.2705 C   0  0  0  0  0  0  0  0  0  0  0  0
    1.5190    0.0799   -1.3613 H   0  0  0  0  0  0  0  0  0  0  0  0
    1.1665   -1.2087    0.3193 C   0  0  0  0  0  0  0  0  0  0  0  0
    1.3102   -1.1747    1.4257 H   0  0  0  0  0  0  0  0  0  0  0  0
   -0.1877   -1.4776    0.0506 O   0  0  0  0  0  0  0  0  0  0  0  0
    1.9277   -2.2138   -0.2406 O   0  0  0  0  0  0  0  0  0  0  0  0
    2.9336    0.4686    0.0012 O   0  0  0  0  0  0  0  0  0  0  0  0
    0.9122    2.4786   -0.3870 O   0  0  0  0  0  0  0  0  0  0  0  0
   -1.7078    1.7883    0.4823 O   0  0  0  0  0  0  0  0  0  0  0  0
   -3.0060   -0.7347   -0.9585 O   0  0  0  0  0  0  0  0  0  0  0  0
   -3.1660   -0.5351    1.0874 H   0  0  0  0  0  0  0  0  0  0  0  0
   -2.5344   -2.0798    0.4482 H   0  0  0  0  0  0  0  0  0  0  0  0
    1.4462   -3.0537   -0.1749 H   0  0  0  0  0  0  0  0  0  0  0  0
    3.1519    0.2646    0.9223 H   0  0  0  0  0  0  0  0  0  0  0  0
    1.8721    2.5936   -0.4607 H   0  0  0  0  0  0  0  0  0  0  0  0
   -1.4161    2.6754    0.2208 H   0  0  0  0  0  0  0  0  0  0  0  0
   -3.2201    0.2063   -1.0297 H   0  0  0  0  0  0  0  0  0  0  0  0
  1  2  1  0  0  0  0
  2  3  1  0  0  0  0
  2  4  1  0  0  0  0
  4  5  1  0  0  0  0
  4  6  1  0  0  0  0
  6  7  1  0  0  0  0
  6  8  1  0  0  0  0
  8  9  1  0  0  0  0
  8 10  1  0  0  0  0
 10 11  1  0  0  0  0
  2 12  1  0  0  0  0
 10 12  1  0  0  0  0
 10 13  1  0  0  0  0
  8 14  1  0  0  0  0
  6 15  1  0  0  0  0
  4 16  1  0  0  0  0
  1 17  1  0  0  0  0
  1 18  1  0  0  0  0
  1 19  1  0  0  0  0
 13 20  1  0  0  0  0
 14 21  1  0  0  0  0
 15 22  1  0  0  0  0
 16 23  1  0  0  0  0
 17 24  1  0  0  0  0
M  END
