 xtb: 6.7.1 (edcfbbe)
          04032521443D

 18 18  0     0  0            999 V2000
    2.2694   -0.1414   -0.4370 C   0  0  0  0  0  0  0  0  0  0  0  0
    1.0849    0.0893    0.3629 N   0  0  0  0  0  0  0  0  0  0  0  0
    0.2596   -1.1005    0.5565 C   0  0  0  0  0  0  0  0  0  0  0  0
   -0.9423   -1.1322   -0.3863 C   0  0  0  0  0  0  0  0  0  0  0  0
   -1.8062   -0.0216   -0.1737 O   0  0  0  0  0  0  0  0  0  0  0  0
   -1.1335    1.1243    0.3351 C   0  0  0  0  0  0  0  0  0  0  0  0
    0.3041    1.2068   -0.1584 C   0  0  0  0  0  0  0  0  0  0  0  0
    2.8501    0.7791   -0.4639 H   0  0  0  0  0  0  0  0  0  0  0  0
    2.0418   -0.4401   -1.4724 H   0  0  0  0  0  0  0  0  0  0  0  0
    2.8690   -0.9179    0.0327 H   0  0  0  0  0  0  0  0  0  0  0  0
    0.8643   -1.9947    0.4071 H   0  0  0  0  0  0  0  0  0  0  0  0
   -0.1049   -1.1016    1.5896 H   0  0  0  0  0  0  0  0  0  0  0  0
   -0.5994   -1.1300   -1.4317 H   0  0  0  0  0  0  0  0  0  0  0  0
   -1.5483   -2.0257   -0.2213 H   0  0  0  0  0  0  0  0  0  0  0  0
   -1.7113    1.9842   -0.0098 H   0  0  0  0  0  0  0  0  0  0  0  0
   -1.1462    1.1040    1.4326 H   0  0  0  0  0  0  0  0  0  0  0  0
    0.2959    1.2179   -1.2621 H   0  0  0  0  0  0  0  0  0  0  0  0
    0.7599    2.1380    0.1885 H   0  0  0  0  0  0  0  0  0  0  0  0
  1  2  1  0  0  0  0
  2  3  1  0  0  0  0
  3  4  1  0  0  0  0
  4  5  1  0  0  0  0
  5  6  1  0  0  0  0
  2  7  1  0  0  0  0
  6  7  1  0  0  0  0
  1  8  1  0  0  0  0
  1  9  1  0  0  0  0
  1 10  1  0  0  0  0
  3 11  1  0  0  0  0
  3 12  1  0  0  0  0
  4 13  1  0  0  0  0
  4 14  1  0  0  0  0
  6 15  1  0  0  0  0
  6 16  1  0  0  0  0
  7 17  1  0  0  0  0
  7 18  1  0  0  0  0
M  END
