 xtb: 6.7.1 (edcfbbe)
          04062518003D

 24 24  0     0  0            999 V2000
   -2.4743   -0.4646   -0.1977 C   0  0  0  0  0  0  0  0  0  0  0  0
   -1.0355   -0.1957    0.2485 C   0  0  0  0  0  0  0  0  0  0  0  0
   -0.9621   -0.3521    1.3366 H   0  0  0  0  0  0  0  0  0  0  0  0
   -0.6093    1.2534   -0.0727 C   0  0  0  0  0  0  0  0  0  0  0  0
   -1.1634    1.6137   -0.9456 H   0  0  0  0  0  0  0  0  0  0  0  0
    0.8891    1.2971   -0.4386 C   0  0  0  0  0  0  0  0  0  0  0  0
    1.2620    2.2994   -0.1752 H   0  0  0  0  0  0  0  0  0  0  0  0
    1.6510    0.2620    0.4070 C   0  0  0  0  0  0  0  0  0  0  0  0
    2.7111    0.2641    0.1224 H   0  0  0  0  0  0  0  0  0  0  0  0
    1.1136   -1.1539    0.0930 C   0  0  0  0  0  0  0  0  0  0  0  0
    1.1210   -1.7455    1.0372 H   0  0  0  0  0  0  0  0  0  0  0  0
   -0.2018   -1.1392   -0.4060 O   0  0  0  0  0  0  0  0  0  0  0  0
    1.9422   -1.7319   -0.8510 O   0  0  0  0  0  0  0  0  0  0  0  0
    1.4775    0.6179    1.7554 O   0  0  0  0  0  0  0  0  0  0  0  0
    1.0060    1.0639   -1.8147 O   0  0  0  0  0  0  0  0  0  0  0  0
   -0.9233    2.1251    0.9771 O   0  0  0  0  0  0  0  0  0  0  0  0
   -2.9579   -1.7029    0.2545 O   0  0  0  0  0  0  0  0  0  0  0  0
   -2.5155   -0.4037   -1.2918 H   0  0  0  0  0  0  0  0  0  0  0  0
   -3.1221    0.2995    0.2348 H   0  0  0  0  0  0  0  0  0  0  0  0
    1.4665   -2.4448   -1.3042 H   0  0  0  0  0  0  0  0  0  0  0  0
    2.1400    0.1809    2.3091 H   0  0  0  0  0  0  0  0  0  0  0  0
    1.9385    1.0670   -2.0753 H   0  0  0  0  0  0  0  0  0  0  0  0
   -0.3669    1.9039    1.7418 H   0  0  0  0  0  0  0  0  0  0  0  0
   -2.4023   -2.4024   -0.1184 H   0  0  0  0  0  0  0  0  0  0  0  0
  1  2  1  0  0  0  0
  2  3  1  0  0  0  0
  2  4  1  0  0  0  0
  4  5  1  0  0  0  0
  4  6  1  0  0  0  0
  6  7  1  0  0  0  0
  6  8  1  0  0  0  0
  8  9  1  0  0  0  0
  8 10  1  0  0  0  0
 10 11  1  0  0  0  0
  2 12  1  0  0  0  0
 10 12  1  0  0  0  0
 10 13  1  0  0  0  0
  8 14  1  0  0  0  0
  6 15  1  0  0  0  0
  4 16  1  0  0  0  0
  1 17  1  0  0  0  0
  1 18  1  0  0  0  0
  1 19  1  0  0  0  0
 13 20  1  0  0  0  0
 14 21  1  0  0  0  0
 15 22  1  0  0  0  0
 16 23  1  0  0  0  0
 17 24  1  0  0  0  0
M  END
