 xtb: 6.7.1 (edcfbbe)
          04062518003D

 24 24  0     0  0            999 V2000
   -2.2939   -1.0665   -0.1446 C   0  0  0  0  0  0  0  0  0  0  0  0
   -0.8948   -0.5498    0.2136 C   0  0  0  0  0  0  0  0  0  0  0  0
   -0.7448   -0.6039    1.3033 H   0  0  0  0  0  0  0  0  0  0  0  0
   -0.7138    0.9156   -0.2242 C   0  0  0  0  0  0  0  0  0  0  0  0
   -1.1127    1.0336   -1.2431 H   0  0  0  0  0  0  0  0  0  0  0  0
    0.7819    1.2774   -0.3037 C   0  0  0  0  0  0  0  0  0  0  0  0
    0.8923    2.2727    0.1577 H   0  0  0  0  0  0  0  0  0  0  0  0
    1.6444    0.2712    0.4805 C   0  0  0  0  0  0  0  0  0  0  0  0
    2.7074    0.4654    0.2701 H   0  0  0  0  0  0  0  0  0  0  0  0
    1.3780   -1.1664   -0.0050 C   0  0  0  0  0  0  0  0  0  0  0  0
    1.5799   -1.8422    0.8541 H   0  0  0  0  0  0  0  0  0  0  0  0
    0.0521   -1.3781   -0.4348 O   0  0  0  0  0  0  0  0  0  0  0  0
    2.2344   -1.4396   -1.0562 O   0  0  0  0  0  0  0  0  0  0  0  0
    1.3976    0.3107    1.8620 O   0  0  0  0  0  0  0  0  0  0  0  0
    1.1332    1.3220   -1.6620 O   0  0  0  0  0  0  0  0  0  0  0  0
   -1.3459    1.7989    0.6659 O   0  0  0  0  0  0  0  0  0  0  0  0
   -3.2987   -0.3539    0.5350 O   0  0  0  0  0  0  0  0  0  0  0  0
   -2.3410   -2.1395    0.0643 H   0  0  0  0  0  0  0  0  0  0  0  0
   -2.4674   -0.9143   -1.2123 H   0  0  0  0  0  0  0  0  0  0  0  0
    1.8952   -2.2010   -1.5516 H   0  0  0  0  0  0  0  0  0  0  0  0
    1.5700    1.2016    2.2014 H   0  0  0  0  0  0  0  0  0  0  0  0
    2.0841    1.4770   -1.7562 H   0  0  0  0  0  0  0  0  0  0  0  0
   -2.2912    1.5721    0.6904 H   0  0  0  0  0  0  0  0  0  0  0  0
   -3.3437   -0.6544    1.4540 H   0  0  0  0  0  0  0  0  0  0  0  0
  1  2  1  0  0  0  0
  2  3  1  0  0  0  0
  2  4  1  0  0  0  0
  4  5  1  0  0  0  0
  4  6  1  0  0  0  0
  6  7  1  0  0  0  0
  6  8  1  0  0  0  0
  8  9  1  0  0  0  0
  8 10  1  0  0  0  0
 10 11  1  0  0  0  0
  2 12  1  0  0  0  0
 10 12  1  0  0  0  0
 10 13  1  0  0  0  0
  8 14  1  0  0  0  0
  6 15  1  0  0  0  0
  4 16  1  0  0  0  0
  1 17  1  0  0  0  0
  1 18  1  0  0  0  0
  1 19  1  0  0  0  0
 13 20  1  0  0  0  0
 14 21  1  0  0  0  0
 15 22  1  0  0  0  0
 16 23  1  0  0  0  0
 17 24  1  0  0  0  0
M  END
