 xtb: 6.7.1 (edcfbbe)
          04062520053D

 27 27  0     0  0            999 V2000
   -2.8273    0.7710    0.7544 C   0  0  0  0  0  0  0  0  0  0  0  0
   -1.5250    0.5099    0.0638 C   0  0  0  0  0  0  0  0  0  0  0  0
   -0.9129    1.4123   -0.6901 C   0  0  0  0  0  0  0  0  0  0  0  0
    0.3928    1.2120   -1.3943 C   0  0  0  0  0  0  0  0  0  0  0  0
    1.1460   -0.0349   -0.9220 C   0  0  0  0  0  0  0  0  0  0  0  0
    1.8501   -0.3297   -1.7087 H   0  0  0  0  0  0  0  0  0  0  0  0
    0.1384   -1.1787   -0.7495 C   0  0  0  0  0  0  0  0  0  0  0  0
   -0.9083   -0.8469    0.3168 C   0  0  0  0  0  0  0  0  0  0  0  0
   -0.4214   -0.8162    1.3090 H   0  0  0  0  0  0  0  0  0  0  0  0
   -1.9404   -1.8222    0.3399 O   0  0  0  0  0  0  0  0  0  0  0  0
    1.9519    0.1727    0.3411 C   0  0  0  0  0  0  0  0  0  0  0  0
    1.6633    1.0802    1.2604 C   0  0  0  0  0  0  0  0  0  0  0  0
    3.1361   -0.7384    0.4812 C   0  0  0  0  0  0  0  0  0  0  0  0
   -3.5565    0.0196    0.4575 H   0  0  0  0  0  0  0  0  0  0  0  0
   -3.2046    1.7598    0.5094 H   0  0  0  0  0  0  0  0  0  0  0  0
   -2.6971    0.6936    1.8334 H   0  0  0  0  0  0  0  0  0  0  0  0
   -1.3755    2.3794   -0.8398 H   0  0  0  0  0  0  0  0  0  0  0  0
    0.1909    1.1212   -2.4669 H   0  0  0  0  0  0  0  0  0  0  0  0
    1.0196    2.0970   -1.2612 H   0  0  0  0  0  0  0  0  0  0  0  0
   -0.3838   -1.3401   -1.6951 H   0  0  0  0  0  0  0  0  0  0  0  0
    0.6547   -2.1031   -0.4813 H   0  0  0  0  0  0  0  0  0  0  0  0
   -1.5488   -2.6875    0.5147 H   0  0  0  0  0  0  0  0  0  0  0  0
    2.2645    1.1896    2.1480 H   0  0  0  0  0  0  0  0  0  0  0  0
    0.8199    1.7422    1.1752 H   0  0  0  0  0  0  0  0  0  0  0  0
    3.8647   -0.5243   -0.3000 H   0  0  0  0  0  0  0  0  0  0  0  0
    3.6151   -0.6095    1.4476 H   0  0  0  0  0  0  0  0  0  0  0  0
    2.8347   -1.7789    0.3750 H   0  0  0  0  0  0  0  0  0  0  0  0
  1  2  1  0  0  0  0
  2  3  2  0  0  0  0
  3  4  1  0  0  0  0
  4  5  1  0  0  0  0
  5  6  1  0  0  0  0
  5  7  1  0  0  0  0
  2  8  1  0  0  0  0
  7  8  1  0  0  0  0
  8  9  1  0  0  0  0
  8 10  1  0  0  0  0
  5 11  1  0  0  0  0
 11 12  2  0  0  0  0
 11 13  1  0  0  0  0
  1 14  1  0  0  0  0
  1 15  1  0  0  0  0
  1 16  1  0  0  0  0
  3 17  1  0  0  0  0
  4 18  1  0  0  0  0
  4 19  1  0  0  0  0
  7 20  1  0  0  0  0
  7 21  1  0  0  0  0
 10 22  1  0  0  0  0
 12 23  1  0  0  0  0
 12 24  1  0  0  0  0
 13 25  1  0  0  0  0
 13 26  1  0  0  0  0
 13 27  1  0  0  0  0
M  END
