 xtb: 6.7.1 (edcfbbe)
          04032521383D

 24 25  0     0  0            999 V2000
    3.2772    1.0718    0.0013 C   0  0  0  0  0  0  0  0  0  0  0  0
    2.2779    0.0358   -0.0001 N   0  0  0  0  0  0  0  0  0  0  0  0
    2.4781   -1.2903   -0.0014 C   0  0  0  0  0  0  0  0  0  0  0  0
    1.3624   -1.9966   -0.0015 N   0  0  0  0  0  0  0  0  0  0  0  0
    0.3784   -1.0729    0.0001 C   0  0  0  0  0  0  0  0  0  0  0  0
    0.9149    0.2117    0.0009 C   0  0  0  0  0  0  0  0  0  0  0  0
    0.0896    1.3730    0.0005 C   0  0  0  0  0  0  0  0  0  0  0  0
    0.4560    2.5448    0.0002 O   0  0  0  0  0  0  0  0  0  0  0  0
   -1.2652    1.0512   -0.0002 N   0  0  0  0  0  0  0  0  0  0  0  0
   -1.8210   -0.2204    0.0003 C   0  0  0  0  0  0  0  0  0  0  0  0
   -3.0325   -0.3893    0.0002 O   0  0  0  0  0  0  0  0  0  0  0  0
   -0.9643   -1.2868   -0.0003 N   0  0  0  0  0  0  0  0  0  0  0  0
   -1.5086   -2.6320    0.0013 C   0  0  0  0  0  0  0  0  0  0  0  0
   -2.1813    2.1835   -0.0013 C   0  0  0  0  0  0  0  0  0  0  0  0
    3.9087    0.9831   -0.8818 H   0  0  0  0  0  0  0  0  0  0  0  0
    2.7722    2.0356   -0.0071 H   0  0  0  0  0  0  0  0  0  0  0  0
    3.8961    0.9929    0.8943 H   0  0  0  0  0  0  0  0  0  0  0  0
    3.4518   -1.7365   -0.0023 H   0  0  0  0  0  0  0  0  0  0  0  0
   -2.1629   -2.7608   -0.8598 H   0  0  0  0  0  0  0  0  0  0  0  0
   -2.0933   -2.7899    0.9067 H   0  0  0  0  0  0  0  0  0  0  0  0
   -0.6715   -3.3212   -0.0412 H   0  0  0  0  0  0  0  0  0  0  0  0
   -3.1967    1.7980   -0.0093 H   0  0  0  0  0  0  0  0  0  0  0  0
   -1.9954    2.7961   -0.8825 H   0  0  0  0  0  0  0  0  0  0  0  0
   -2.0073    2.7890    0.8872 H   0  0  0  0  0  0  0  0  0  0  0  0
  1  2  1  0  0  0  0
  2  3  4  0  0  0  0
  3  4  4  0  0  0  0
  4  5  4  0  0  0  0
  2  6  1  0  0  0  0
  5  6  4  0  0  0  0
  6  7  1  0  0  0  0
  7  8  2  0  0  0  0
  7  9  1  0  0  0  0
  9 10  1  0  0  0  0
 10 11  2  0  0  0  0
  5 12  1  0  0  0  0
 10 12  1  0  0  0  0
 12 13  1  0  0  0  0
  9 14  1  0  0  0  0
  1 15  1  0  0  0  0
  1 16  1  0  0  0  0
  1 17  1  0  0  0  0
  3 18  1  0  0  0  0
 13 19  1  0  0  0  0
 13 20  1  0  0  0  0
 13 21  1  0  0  0  0
 14 22  1  0  0  0  0
 14 23  1  0  0  0  0
 14 24  1  0  0  0  0
M  END
