 xtb: 6.7.1 (edcfbbe)
          04062520053D

 27 27  0     0  0            999 V2000
   -2.7301    0.9452    1.3127 C   0  0  0  0  0  0  0  0  0  0  0  0
   -1.6569    0.5025    0.3707 C   0  0  0  0  0  0  0  0  0  0  0  0
   -0.8647    1.3198   -0.3126 C   0  0  0  0  0  0  0  0  0  0  0  0
    0.1850    0.7683   -1.2211 C   0  0  0  0  0  0  0  0  0  0  0  0
    0.9558   -0.4245   -0.5980 C   0  0  0  0  0  0  0  0  0  0  0  0
    1.2451   -1.0821   -1.4221 H   0  0  0  0  0  0  0  0  0  0  0  0
    0.0927   -1.2373    0.3852 C   0  0  0  0  0  0  0  0  0  0  0  0
   -1.4097   -0.9806    0.2161 C   0  0  0  0  0  0  0  0  0  0  0  0
   -1.9504   -1.5366    0.9995 H   0  0  0  0  0  0  0  0  0  0  0  0
   -1.8070   -1.4803   -1.0550 O   0  0  0  0  0  0  0  0  0  0  0  0
    2.2177    0.0781    0.0593 C   0  0  0  0  0  0  0  0  0  0  0  0
    3.4124   -0.2473   -0.4108 C   0  0  0  0  0  0  0  0  0  0  0  0
    2.0610    0.9834    1.2462 C   0  0  0  0  0  0  0  0  0  0  0  0
   -2.8008    2.0293    1.3303 H   0  0  0  0  0  0  0  0  0  0  0  0
   -2.5115    0.5900    2.3196 H   0  0  0  0  0  0  0  0  0  0  0  0
   -3.6953    0.5342    1.0201 H   0  0  0  0  0  0  0  0  0  0  0  0
   -0.9756    2.3933   -0.2512 H   0  0  0  0  0  0  0  0  0  0  0  0
   -0.3021    0.4085   -2.1307 H   0  0  0  0  0  0  0  0  0  0  0  0
    0.8955    1.5441   -1.5096 H   0  0  0  0  0  0  0  0  0  0  0  0
    0.2838   -2.3011    0.2428 H   0  0  0  0  0  0  0  0  0  0  0  0
    0.3448   -0.9811    1.4133 H   0  0  0  0  0  0  0  0  0  0  0  0
   -2.7440   -1.2901   -1.1896 H   0  0  0  0  0  0  0  0  0  0  0  0
    4.3197    0.1252    0.0350 H   0  0  0  0  0  0  0  0  0  0  0  0
    3.5345   -0.9028   -1.2566 H   0  0  0  0  0  0  0  0  0  0  0  0
    1.1458    1.5648    1.1684 H   0  0  0  0  0  0  0  0  0  0  0  0
    2.0127    0.3987    2.1645 H   0  0  0  0  0  0  0  0  0  0  0  0
    2.9105    1.6564    1.3275 H   0  0  0  0  0  0  0  0  0  0  0  0
  1  2  1  0  0  0  0
  2  3  2  0  0  0  0
  3  4  1  0  0  0  0
  4  5  1  0  0  0  0
  5  6  1  0  0  0  0
  5  7  1  0  0  0  0
  2  8  1  0  0  0  0
  7  8  1  0  0  0  0
  8  9  1  0  0  0  0
  8 10  1  0  0  0  0
  5 11  1  0  0  0  0
 11 12  2  0  0  0  0
 11 13  1  0  0  0  0
  1 14  1  0  0  0  0
  1 15  1  0  0  0  0
  1 16  1  0  0  0  0
  3 17  1  0  0  0  0
  4 18  1  0  0  0  0
  4 19  1  0  0  0  0
  7 20  1  0  0  0  0
  7 21  1  0  0  0  0
 10 22  1  0  0  0  0
 12 23  1  0  0  0  0
 12 24  1  0  0  0  0
 13 25  1  0  0  0  0
 13 26  1  0  0  0  0
 13 27  1  0  0  0  0
M  END
