 xtb: 6.7.1 (edcfbbe)
          04042521533D

 16 16  0     0  0            999 V2000
   -2.7804   -0.4049    0.0001 C   0  0  0  0  0  0  0  0  0  0  0  0
   -1.7898    0.6050   -0.0001 O   0  0  0  0  0  0  0  0  0  0  0  0
   -0.4751    0.2332   -0.0000 C   0  0  0  0  0  0  0  0  0  0  0  0
   -0.0196   -1.0799   -0.0001 C   0  0  0  0  0  0  0  0  0  0  0  0
    1.3429   -1.3336   -0.0000 C   0  0  0  0  0  0  0  0  0  0  0  0
    2.2570   -0.2969    0.0000 C   0  0  0  0  0  0  0  0  0  0  0  0
    1.8019    1.0132    0.0000 C   0  0  0  0  0  0  0  0  0  0  0  0
    0.4486    1.2795   -0.0000 C   0  0  0  0  0  0  0  0  0  0  0  0
   -2.7084   -1.0290    0.8947 H   0  0  0  0  0  0  0  0  0  0  0  0
   -2.7086   -1.0291   -0.8945 H   0  0  0  0  0  0  0  0  0  0  0  0
   -3.7298    0.1258    0.0002 H   0  0  0  0  0  0  0  0  0  0  0  0
   -0.7102   -1.9078   -0.0001 H   0  0  0  0  0  0  0  0  0  0  0  0
    1.6861   -2.3572   -0.0000 H   0  0  0  0  0  0  0  0  0  0  0  0
    3.3155   -0.5046    0.0001 H   0  0  0  0  0  0  0  0  0  0  0  0
    2.5055    1.8315    0.0001 H   0  0  0  0  0  0  0  0  0  0  0  0
    0.0740    2.2911    0.0000 H   0  0  0  0  0  0  0  0  0  0  0  0
  1  2  1  0  0  0  0
  2  3  1  0  0  0  0
  3  4  4  0  0  0  0
  4  5  4  0  0  0  0
  5  6  4  0  0  0  0
  6  7  4  0  0  0  0
  3  8  4  0  0  0  0
  7  8  4  0  0  0  0
  1  9  1  0  0  0  0
  1 10  1  0  0  0  0
  1 11  1  0  0  0  0
  4 12  1  0  0  0  0
  5 13  1  0  0  0  0
  6 14  1  0  0  0  0
  7 15  1  0  0  0  0
  8 16  1  0  0  0  0
M  END
