 xtb: 6.7.1 (edcfbbe)
          04062518003D

 24 24  0     0  0            999 V2000
   -2.5613   -0.6485   -0.3561 C   0  0  0  0  0  0  0  0  0  0  0  0
   -1.1842   -0.2944    0.2151 C   0  0  0  0  0  0  0  0  0  0  0  0
   -1.2548   -0.2369    1.3127 H   0  0  0  0  0  0  0  0  0  0  0  0
   -0.7038    1.0620   -0.3158 C   0  0  0  0  0  0  0  0  0  0  0  0
   -0.6848    1.0287   -1.4161 H   0  0  0  0  0  0  0  0  0  0  0  0
    0.7234    1.3276    0.1790 C   0  0  0  0  0  0  0  0  0  0  0  0
    0.6951    1.4415    1.2769 H   0  0  0  0  0  0  0  0  0  0  0  0
    1.6396    0.1486   -0.1804 C   0  0  0  0  0  0  0  0  0  0  0  0
    1.7243    0.0705   -1.2696 H   0  0  0  0  0  0  0  0  0  0  0  0
    1.0217   -1.1582    0.3425 C   0  0  0  0  0  0  0  0  0  0  0  0
    0.9784   -1.1136    1.4550 H   0  0  0  0  0  0  0  0  0  0  0  0
   -0.2877   -1.3292   -0.1516 O   0  0  0  0  0  0  0  0  0  0  0  0
    1.7941   -2.2152   -0.0857 O   0  0  0  0  0  0  0  0  0  0  0  0
    2.9425    0.3691    0.2891 O   0  0  0  0  0  0  0  0  0  0  0  0
    1.1759    2.5235   -0.4075 O   0  0  0  0  0  0  0  0  0  0  0  0
   -1.5932    2.0496    0.1319 O   0  0  0  0  0  0  0  0  0  0  0  0
   -3.1334   -1.7675    0.2656 O   0  0  0  0  0  0  0  0  0  0  0  0
   -2.4599   -0.8073   -1.4361 H   0  0  0  0  0  0  0  0  0  0  0  0
   -3.2331    0.1908   -0.1713 H   0  0  0  0  0  0  0  0  0  0  0  0
    1.3339   -3.0538    0.0751 H   0  0  0  0  0  0  0  0  0  0  0  0
    2.9938    0.1986    1.2412 H   0  0  0  0  0  0  0  0  0  0  0  0
    2.1418    2.5609   -0.3291 H   0  0  0  0  0  0  0  0  0  0  0  0
   -1.2379    2.9155   -0.1228 H   0  0  0  0  0  0  0  0  0  0  0  0
   -2.5688   -2.5361    0.1005 H   0  0  0  0  0  0  0  0  0  0  0  0
  1  2  1  0  0  0  0
  2  3  1  0  0  0  0
  2  4  1  0  0  0  0
  4  5  1  0  0  0  0
  4  6  1  0  0  0  0
  6  7  1  0  0  0  0
  6  8  1  0  0  0  0
  8  9  1  0  0  0  0
  8 10  1  0  0  0  0
 10 11  1  0  0  0  0
  2 12  1  0  0  0  0
 10 12  1  0  0  0  0
 10 13  1  0  0  0  0
  8 14  1  0  0  0  0
  6 15  1  0  0  0  0
  4 16  1  0  0  0  0
  1 17  1  0  0  0  0
  1 18  1  0  0  0  0
  1 19  1  0  0  0  0
 13 20  1  0  0  0  0
 14 21  1  0  0  0  0
 15 22  1  0  0  0  0
 16 23  1  0  0  0  0
 17 24  1  0  0  0  0
M  END
