 xtb: 6.7.1 (edcfbbe)
          04062518003D

 24 24  0     0  0            999 V2000
   -2.3954   -0.7460   -0.0751 C   0  0  0  0  0  0  0  0  0  0  0  0
   -1.0153   -0.2555    0.3812 C   0  0  0  0  0  0  0  0  0  0  0  0
   -1.1098    0.1130    1.4125 H   0  0  0  0  0  0  0  0  0  0  0  0
   -0.5160    0.8894   -0.5000 C   0  0  0  0  0  0  0  0  0  0  0  0
   -0.4615    0.5329   -1.5405 H   0  0  0  0  0  0  0  0  0  0  0  0
    0.8928    1.3393   -0.0592 C   0  0  0  0  0  0  0  0  0  0  0  0
    0.7892    2.0509    0.7683 H   0  0  0  0  0  0  0  0  0  0  0  0
    1.7493    0.1510    0.4428 C   0  0  0  0  0  0  0  0  0  0  0  0
    2.7672    0.2796    0.0610 H   0  0  0  0  0  0  0  0  0  0  0  0
    1.1789   -1.1670   -0.0960 C   0  0  0  0  0  0  0  0  0  0  0  0
    1.7502   -2.0099    0.3190 H   0  0  0  0  0  0  0  0  0  0  0  0
   -0.1317   -1.3823    0.3677 O   0  0  0  0  0  0  0  0  0  0  0  0
    1.2604   -1.1363   -1.4865 O   0  0  0  0  0  0  0  0  0  0  0  0
    1.8720    0.1104    1.8397 O   0  0  0  0  0  0  0  0  0  0  0  0
    1.5310    2.0502   -1.0903 O   0  0  0  0  0  0  0  0  0  0  0  0
   -1.4438    1.9412   -0.3993 O   0  0  0  0  0  0  0  0  0  0  0  0
   -2.9308   -1.7044    0.7993 O   0  0  0  0  0  0  0  0  0  0  0  0
   -2.3140   -1.1515   -1.0919 H   0  0  0  0  0  0  0  0  0  0  0  0
   -3.0841    0.0998   -0.0787 H   0  0  0  0  0  0  0  0  0  0  0  0
    1.0639   -2.0101   -1.8576 H   0  0  0  0  0  0  0  0  0  0  0  0
    1.0555   -0.2248    2.2374 H   0  0  0  0  0  0  0  0  0  0  0  0
    1.7022    1.4502   -1.8318 H   0  0  0  0  0  0  0  0  0  0  0  0
   -1.0999    2.7056   -0.8856 H   0  0  0  0  0  0  0  0  0  0  0  0
   -2.2933   -2.4287    0.8855 H   0  0  0  0  0  0  0  0  0  0  0  0
  1  2  1  0  0  0  0
  2  3  1  0  0  0  0
  2  4  1  0  0  0  0
  4  5  1  0  0  0  0
  4  6  1  0  0  0  0
  6  7  1  0  0  0  0
  6  8  1  0  0  0  0
  8  9  1  0  0  0  0
  8 10  1  0  0  0  0
 10 11  1  0  0  0  0
  2 12  1  0  0  0  0
 10 12  1  0  0  0  0
 10 13  1  0  0  0  0
  8 14  1  0  0  0  0
  6 15  1  0  0  0  0
  4 16  1  0  0  0  0
  1 17  1  0  0  0  0
  1 18  1  0  0  0  0
  1 19  1  0  0  0  0
 13 20  1  0  0  0  0
 14 21  1  0  0  0  0
 15 22  1  0  0  0  0
 16 23  1  0  0  0  0
 17 24  1  0  0  0  0
M  END
