 xtb: 6.7.1 (edcfbbe)
          04062508313D

 24 24  0     0  0            999 V2000
   -3.4297    0.6270    0.2420 C   0  0  0  0  0  0  0  0  0  0  0  0
   -2.0252    0.7385   -0.0035 O   0  0  0  0  0  0  0  0  0  0  0  0
   -1.3299   -0.3874   -0.1051 C   0  0  0  0  0  0  0  0  0  0  0  0
   -1.8382   -1.4849    0.0079 O   0  0  0  0  0  0  0  0  0  0  0  0
    0.1367   -0.1538   -0.3939 C   0  0  0  0  0  0  0  0  0  0  0  0
    0.9841   -1.2451    0.2676 C   0  0  0  0  0  0  0  0  0  0  0  0
    2.4548   -1.0648   -0.0928 C   0  0  0  0  0  0  0  0  0  0  0  0
    2.9396    0.3191    0.3297 C   0  0  0  0  0  0  0  0  0  0  0  0
    2.0949    1.4046   -0.3309 C   0  0  0  0  0  0  0  0  0  0  0  0
    0.6197    1.2351    0.0248 C   0  0  0  0  0  0  0  0  0  0  0  0
   -3.6086   -0.0206    1.1011 H   0  0  0  0  0  0  0  0  0  0  0  0
   -3.9266    0.2030   -0.6312 H   0  0  0  0  0  0  0  0  0  0  0  0
   -3.7742    1.6384    0.4332 H   0  0  0  0  0  0  0  0  0  0  0  0
    0.2411   -0.2506   -1.4824 H   0  0  0  0  0  0  0  0  0  0  0  0
    0.8607   -1.1826    1.3513 H   0  0  0  0  0  0  0  0  0  0  0  0
    0.6236   -2.2248   -0.0503 H   0  0  0  0  0  0  0  0  0  0  0  0
    3.0482   -1.8359    0.4004 H   0  0  0  0  0  0  0  0  0  0  0  0
    2.5809   -1.1816   -1.1711 H   0  0  0  0  0  0  0  0  0  0  0  0
    2.8647    0.4119    1.4151 H   0  0  0  0  0  0  0  0  0  0  0  0
    3.9876    0.4451    0.0531 H   0  0  0  0  0  0  0  0  0  0  0  0
    2.4361    2.3893   -0.0081 H   0  0  0  0  0  0  0  0  0  0  0  0
    2.2145    1.3461   -1.4147 H   0  0  0  0  0  0  0  0  0  0  0  0
    0.4860    1.3509    1.1022 H   0  0  0  0  0  0  0  0  0  0  0  0
    0.0237    2.0010   -0.4718 H   0  0  0  0  0  0  0  0  0  0  0  0
  1  2  1  0  0  0  0
  2  3  1  0  0  0  0
  3  4  2  0  0  0  0
  3  5  1  0  0  0  0
  5  6  1  0  0  0  0
  6  7  1  0  0  0  0
  7  8  1  0  0  0  0
  8  9  1  0  0  0  0
  5 10  1  0  0  0  0
  9 10  1  0  0  0  0
  1 11  1  0  0  0  0
  1 12  1  0  0  0  0
  1 13  1  0  0  0  0
  5 14  1  0  0  0  0
  6 15  1  0  0  0  0
  6 16  1  0  0  0  0
  7 17  1  0  0  0  0
  7 18  1  0  0  0  0
  8 19  1  0  0  0  0
  8 20  1  0  0  0  0
  9 21  1  0  0  0  0
  9 22  1  0  0  0  0
 10 23  1  0  0  0  0
 10 24  1  0  0  0  0
M  END
