 xtb: 6.7.1 (edcfbbe)
          04052508543D

 22 23  0     0  0            999 V2000
    0.7404   -0.0004    0.0002 C   0  0  0  0  0  0  0  0  0  0  0  0
    1.4443    0.9575   -0.7264 C   0  0  0  0  0  0  0  0  0  0  0  0
    2.8381    0.9637   -0.7299 C   0  0  0  0  0  0  0  0  0  0  0  0
    3.5347    0.0004   -0.0004 C   0  0  0  0  0  0  0  0  0  0  0  0
    2.8389   -0.9633    0.7293 C   0  0  0  0  0  0  0  0  0  0  0  0
    1.4451   -0.9581    0.7264 C   0  0  0  0  0  0  0  0  0  0  0  0
    0.5842   -2.1277    1.6349 Cl  0  0  0  0  0  0  0  0  0  0  0  0
    3.6959   -2.1455    1.6254 Cl  0  0  0  0  0  0  0  0  0  0  0  0
    5.2465    0.0012   -0.0004 Cl  0  0  0  0  0  0  0  0  0  0  0  0
    3.6940    2.1463   -1.6264 Cl  0  0  0  0  0  0  0  0  0  0  0  0
    0.5824    2.1267   -1.6346 Cl  0  0  0  0  0  0  0  0  0  0  0  0
   -0.7404   -0.0004    0.0003 C   0  0  0  0  0  0  0  0  0  0  0  0
   -1.4446    0.9575    0.7268 C   0  0  0  0  0  0  0  0  0  0  0  0
   -2.8384    0.9634    0.7298 C   0  0  0  0  0  0  0  0  0  0  0  0
   -3.5347    0.0002   -0.0001 C   0  0  0  0  0  0  0  0  0  0  0  0
   -2.8386   -0.9634   -0.7297 C   0  0  0  0  0  0  0  0  0  0  0  0
   -1.4448   -0.9580   -0.7263 C   0  0  0  0  0  0  0  0  0  0  0  0
   -0.5834   -2.1279   -1.6343 Cl  0  0  0  0  0  0  0  0  0  0  0  0
   -3.6951   -2.1460   -1.6256 Cl  0  0  0  0  0  0  0  0  0  0  0  0
   -5.2466    0.0006   -0.0003 Cl  0  0  0  0  0  0  0  0  0  0  0  0
   -3.6947    2.1459    1.6261 Cl  0  0  0  0  0  0  0  0  0  0  0  0
   -0.5832    2.1268    1.6351 Cl  0  0  0  0  0  0  0  0  0  0  0  0
  1  2  4  0  0  0  0
  2  3  4  0  0  0  0
  3  4  4  0  0  0  0
  4  5  4  0  0  0  0
  1  6  4  0  0  0  0
  5  6  4  0  0  0  0
  6  7  1  0  0  0  0
  5  8  1  0  0  0  0
  4  9  1  0  0  0  0
  3 10  1  0  0  0  0
  2 11  1  0  0  0  0
  1 12  1  0  0  0  0
 12 13  4  0  0  0  0
 13 14  4  0  0  0  0
 14 15  4  0  0  0  0
 15 16  4  0  0  0  0
 12 17  4  0  0  0  0
 16 17  4  0  0  0  0
 17 18  1  0  0  0  0
 16 19  1  0  0  0  0
 15 20  1  0  0  0  0
 14 21  1  0  0  0  0
 13 22  1  0  0  0  0
M  END
