 xtb: 6.7.1 (edcfbbe)
          04042519533D

 16 17  0     0  0            999 V2000
    1.1046   -1.8565   -0.0034 C   0  0  0  0  0  0  0  0  0  0  0  0
    2.1017   -0.9011   -0.0066 C   0  0  0  0  0  0  0  0  0  0  0  0
    1.7998    0.4735   -0.0057 C   0  0  0  0  0  0  0  0  0  0  0  0
    0.4524    0.8484   -0.0040 C   0  0  0  0  0  0  0  0  0  0  0  0
   -0.5368   -0.1278   -0.0003 C   0  0  0  0  0  0  0  0  0  0  0  0
   -0.2290   -1.4885   -0.0002 C   0  0  0  0  0  0  0  0  0  0  0  0
   -1.8949    0.2741    0.0006 N   0  0  0  0  0  0  0  0  0  0  0  0
   -2.7667   -0.5868    0.0120 O   0  0  0  0  0  0  0  0  0  0  0  0
   -2.1580    1.4707   -0.0106 O   0  0  0  0  0  0  0  0  0  0  0  0
    2.7818    1.4015    0.0289 N   0  0  0  0  0  0  0  0  0  0  0  0
    1.3670   -2.9022   -0.0047 H   0  0  0  0  0  0  0  0  0  0  0  0
    3.1362   -1.2071   -0.0081 H   0  0  0  0  0  0  0  0  0  0  0  0
    0.1648    1.8880   -0.0033 H   0  0  0  0  0  0  0  0  0  0  0  0
   -1.0245   -2.2148    0.0012 H   0  0  0  0  0  0  0  0  0  0  0  0
    3.7361    1.1168   -0.0941 H   0  0  0  0  0  0  0  0  0  0  0  0
    2.5488    2.3713   -0.0810 H   0  0  0  0  0  0  0  0  0  0  0  0
  1  2  4  0  0  0  0
  2  3  4  0  0  0  0
  3  4  4  0  0  0  0
  4  5  4  0  0  0  0
  1  6  4  0  0  0  0
  5  6  4  0  0  0  0
  5  7  1  0  0  0  0
  7  8  4  0  0  0  0
  7  9  4  0  0  0  0
  8  9  1  0  0  0  0
  3 10  4  0  0  0  0
  1 11  1  0  0  0  0
  2 12  1  0  0  0  0
  4 13  1  0  0  0  0
  6 14  1  0  0  0  0
 10 15  1  0  0  0  0
 10 16  1  0  0  0  0
M  END
