 xtb: 6.7.1 (edcfbbe)
          04062518003D

 24 24  0     0  0            999 V2000
   -2.3216   -0.9735   -0.2846 C   0  0  0  0  0  0  0  0  0  0  0  0
   -0.9257   -0.5231    0.1575 C   0  0  0  0  0  0  0  0  0  0  0  0
   -0.8361   -0.6885    1.2439 H   0  0  0  0  0  0  0  0  0  0  0  0
   -0.6978    0.9779   -0.1271 C   0  0  0  0  0  0  0  0  0  0  0  0
   -1.2217    1.2630   -1.0463 H   0  0  0  0  0  0  0  0  0  0  0  0
    0.8004    1.2517   -0.3755 C   0  0  0  0  0  0  0  0  0  0  0  0
    1.0135    2.2743   -0.0246 H   0  0  0  0  0  0  0  0  0  0  0  0
    1.6490    0.2736    0.4546 C   0  0  0  0  0  0  0  0  0  0  0  0
    2.7124    0.4331    0.2348 H   0  0  0  0  0  0  0  0  0  0  0  0
    1.3257   -1.1798    0.0323 C   0  0  0  0  0  0  0  0  0  0  0  0
    1.3863   -1.8270    0.9370 H   0  0  0  0  0  0  0  0  0  0  0  0
    0.0337   -1.3147   -0.5152 O   0  0  0  0  0  0  0  0  0  0  0  0
    2.2534   -1.5743   -0.9128 O   0  0  0  0  0  0  0  0  0  0  0  0
    1.3583    0.5222    1.8070 O   0  0  0  0  0  0  0  0  0  0  0  0
    1.0326    1.1382   -1.7523 O   0  0  0  0  0  0  0  0  0  0  0  0
   -1.2312    1.7764    0.8953 O   0  0  0  0  0  0  0  0  0  0  0  0
   -3.3306   -0.4147    0.5159 O   0  0  0  0  0  0  0  0  0  0  0  0
   -2.4026   -2.0571   -0.1749 H   0  0  0  0  0  0  0  0  0  0  0  0
   -2.4624   -0.7167   -1.3427 H   0  0  0  0  0  0  0  0  0  0  0  0
    1.8917   -2.3140   -1.4250 H   0  0  0  0  0  0  0  0  0  0  0  0
    2.0402    0.1382    2.3763 H   0  0  0  0  0  0  0  0  0  0  0  0
    1.9743    1.2565   -1.9434 H   0  0  0  0  0  0  0  0  0  0  0  0
   -0.7100    1.6416    1.7026 H   0  0  0  0  0  0  0  0  0  0  0  0
   -3.2048    0.5460    0.5625 H   0  0  0  0  0  0  0  0  0  0  0  0
  1  2  1  0  0  0  0
  2  3  1  0  0  0  0
  2  4  1  0  0  0  0
  4  5  1  0  0  0  0
  4  6  1  0  0  0  0
  6  7  1  0  0  0  0
  6  8  1  0  0  0  0
  8  9  1  0  0  0  0
  8 10  1  0  0  0  0
 10 11  1  0  0  0  0
  2 12  1  0  0  0  0
 10 12  1  0  0  0  0
 10 13  1  0  0  0  0
  8 14  1  0  0  0  0
  6 15  1  0  0  0  0
  4 16  1  0  0  0  0
  1 17  1  0  0  0  0
  1 18  1  0  0  0  0
  1 19  1  0  0  0  0
 13 20  1  0  0  0  0
 14 21  1  0  0  0  0
 15 22  1  0  0  0  0
 16 23  1  0  0  0  0
 17 24  1  0  0  0  0
M  END
