 xtb: 6.7.1 (edcfbbe)
          04052508543D

 20 20  0     0  0            999 V2000
   -2.3786   -0.9868    0.6688 C   0  0  0  0  0  0  0  0  0  0  0  0
   -1.6056   -0.0883   -0.1620 N   0  0  0  0  0  0  0  0  0  0  0  0
   -2.3211    1.1182   -0.5153 C   0  0  0  0  0  0  0  0  0  0  0  0
   -0.2290   -0.0417   -0.0500 C   0  0  0  0  0  0  0  0  0  0  0  0
    0.5200   -1.1826    0.2749 C   0  0  0  0  0  0  0  0  0  0  0  0
    1.8985   -1.1503    0.3155 C   0  0  0  0  0  0  0  0  0  0  0  0
    2.5924    0.0153    0.0368 C   0  0  0  0  0  0  0  0  0  0  0  0
    1.8718    1.1514   -0.2853 C   0  0  0  0  0  0  0  0  0  0  0  0
    0.4913    1.1298   -0.3270 C   0  0  0  0  0  0  0  0  0  0  0  0
   -3.3613   -1.1213    0.2187 H   0  0  0  0  0  0  0  0  0  0  0  0
   -2.5092   -0.5894    1.6834 H   0  0  0  0  0  0  0  0  0  0  0  0
   -1.9066   -1.9609    0.7369 H   0  0  0  0  0  0  0  0  0  0  0  0
   -2.2905    1.8763    0.2772 H   0  0  0  0  0  0  0  0  0  0  0  0
   -3.3610    0.8588   -0.7036 H   0  0  0  0  0  0  0  0  0  0  0  0
   -1.9073    1.5398   -1.4298 H   0  0  0  0  0  0  0  0  0  0  0  0
    0.0296   -2.1189    0.4867 H   0  0  0  0  0  0  0  0  0  0  0  0
    2.4388   -2.0519    0.5672 H   0  0  0  0  0  0  0  0  0  0  0  0
    3.6710    0.0367    0.0718 H   0  0  0  0  0  0  0  0  0  0  0  0
    2.3897    2.0755   -0.5008 H   0  0  0  0  0  0  0  0  0  0  0  0
   -0.0221    2.0458   -0.5676 H   0  0  0  0  0  0  0  0  0  0  0  0
  1  2  1  0  0  0  0
  2  3  1  0  0  0  0
  2  4  1  0  0  0  0
  4  5  4  0  0  0  0
  5  6  4  0  0  0  0
  6  7  4  0  0  0  0
  7  8  4  0  0  0  0
  4  9  4  0  0  0  0
  8  9  4  0  0  0  0
  1 10  1  0  0  0  0
  1 11  1  0  0  0  0
  1 12  1  0  0  0  0
  3 13  1  0  0  0  0
  3 14  1  0  0  0  0
  3 15  1  0  0  0  0
  5 16  1  0  0  0  0
  6 17  1  0  0  0  0
  7 18  1  0  0  0  0
  8 19  1  0  0  0  0
  9 20  1  0  0  0  0
M  END
