 xtb: 6.7.1 (edcfbbe)
          04062518003D

 24 24  0     0  0            999 V2000
   -2.5199   -0.6532   -0.0766 C   0  0  0  0  0  0  0  0  0  0  0  0
   -1.1697   -0.4517    0.6277 C   0  0  0  0  0  0  0  0  0  0  0  0
   -1.2470   -0.7775    1.6773 H   0  0  0  0  0  0  0  0  0  0  0  0
   -0.7099    1.0315    0.6493 C   0  0  0  0  0  0  0  0  0  0  0  0
   -1.5730    1.6704    0.4279 H   0  0  0  0  0  0  0  0  0  0  0  0
    0.3726    1.2746   -0.4074 C   0  0  0  0  0  0  0  0  0  0  0  0
    0.7624    2.2944   -0.2797 H   0  0  0  0  0  0  0  0  0  0  0  0
    1.5668    0.3224   -0.1511 C   0  0  0  0  0  0  0  0  0  0  0  0
    2.1113    0.2078   -1.0961 H   0  0  0  0  0  0  0  0  0  0  0  0
    1.0818   -1.0767    0.2908 C   0  0  0  0  0  0  0  0  0  0  0  0
    1.1687   -1.1451    1.3972 H   0  0  0  0  0  0  0  0  0  0  0  0
   -0.2596   -1.2947   -0.0657 O   0  0  0  0  0  0  0  0  0  0  0  0
    1.8605   -2.0330   -0.3316 O   0  0  0  0  0  0  0  0  0  0  0  0
    2.3664    0.9132    0.8467 O   0  0  0  0  0  0  0  0  0  0  0  0
   -0.1056    1.1795   -1.7196 O   0  0  0  0  0  0  0  0  0  0  0  0
   -0.2681    1.4012    1.9357 O   0  0  0  0  0  0  0  0  0  0  0  0
   -2.4087   -0.4409   -1.4651 O   0  0  0  0  0  0  0  0  0  0  0  0
   -3.2437    0.0699    0.3010 H   0  0  0  0  0  0  0  0  0  0  0  0
   -2.8812   -1.6647    0.1283 H   0  0  0  0  0  0  0  0  0  0  0  0
    1.4524   -2.9075   -0.2309 H   0  0  0  0  0  0  0  0  0  0  0  0
    3.2381    0.4939    0.8678 H   0  0  0  0  0  0  0  0  0  0  0  0
   -0.9336    0.6546   -1.7435 H   0  0  0  0  0  0  0  0  0  0  0  0
    0.7003    1.3369    1.9799 H   0  0  0  0  0  0  0  0  0  0  0  0
   -1.9383   -1.1954   -1.8512 H   0  0  0  0  0  0  0  0  0  0  0  0
  1  2  1  0  0  0  0
  2  3  1  0  0  0  0
  2  4  1  0  0  0  0
  4  5  1  0  0  0  0
  4  6  1  0  0  0  0
  6  7  1  0  0  0  0
  6  8  1  0  0  0  0
  8  9  1  0  0  0  0
  8 10  1  0  0  0  0
 10 11  1  0  0  0  0
  2 12  1  0  0  0  0
 10 12  1  0  0  0  0
 10 13  1  0  0  0  0
  8 14  1  0  0  0  0
  6 15  1  0  0  0  0
  4 16  1  0  0  0  0
  1 17  1  0  0  0  0
  1 18  1  0  0  0  0
  1 19  1  0  0  0  0
 13 20  1  0  0  0  0
 14 21  1  0  0  0  0
 15 22  1  0  0  0  0
 16 23  1  0  0  0  0
 17 24  1  0  0  0  0
M  END
