 xtb: 6.7.1 (edcfbbe)
          04062518003D

 24 24  0     0  0            999 V2000
   -1.9928   -1.2149   -0.3657 C   0  0  0  0  0  0  0  0  0  0  0  0
   -1.2862   -0.3881    0.7196 C   0  0  0  0  0  0  0  0  0  0  0  0
   -1.9619   -0.3020    1.5767 H   0  0  0  0  0  0  0  0  0  0  0  0
   -0.9693    1.0412    0.2380 C   0  0  0  0  0  0  0  0  0  0  0  0
   -1.3122    1.1628   -0.7991 H   0  0  0  0  0  0  0  0  0  0  0  0
    0.5457    1.2752    0.2471 C   0  0  0  0  0  0  0  0  0  0  0  0
    0.8805    1.3696    1.2949 H   0  0  0  0  0  0  0  0  0  0  0  0
    1.2387    0.0695   -0.4007 C   0  0  0  0  0  0  0  0  0  0  0  0
    0.7978   -0.1215   -1.3843 H   0  0  0  0  0  0  0  0  0  0  0  0
    1.0041   -1.1640    0.4828 C   0  0  0  0  0  0  0  0  0  0  0  0
    1.8174   -1.2380    1.2261 H   0  0  0  0  0  0  0  0  0  0  0  0
   -0.1525   -1.0403    1.2794 O   0  0  0  0  0  0  0  0  0  0  0  0
    0.9790   -2.2955   -0.3220 O   0  0  0  0  0  0  0  0  0  0  0  0
    2.5964    0.3348   -0.6325 O   0  0  0  0  0  0  0  0  0  0  0  0
    0.8321    2.4643   -0.4472 O   0  0  0  0  0  0  0  0  0  0  0  0
   -1.6423    1.9458    1.0800 O   0  0  0  0  0  0  0  0  0  0  0  0
   -1.3739   -1.0336   -1.6199 O   0  0  0  0  0  0  0  0  0  0  0  0
   -3.0363   -0.8777   -0.4092 H   0  0  0  0  0  0  0  0  0  0  0  0
   -1.9646   -2.2669   -0.0622 H   0  0  0  0  0  0  0  0  0  0  0  0
    0.9336   -3.0947    0.2255 H   0  0  0  0  0  0  0  0  0  0  0  0
    3.0801    0.3696    0.2070 H   0  0  0  0  0  0  0  0  0  0  0  0
    1.6928    2.3589   -0.8850 H   0  0  0  0  0  0  0  0  0  0  0  0
   -1.4099    2.8468    0.8098 H   0  0  0  0  0  0  0  0  0  0  0  0
   -1.7861   -1.6264   -2.2639 H   0  0  0  0  0  0  0  0  0  0  0  0
  1  2  1  0  0  0  0
  2  3  1  0  0  0  0
  2  4  1  0  0  0  0
  4  5  1  0  0  0  0
  4  6  1  0  0  0  0
  6  7  1  0  0  0  0
  6  8  1  0  0  0  0
  8  9  1  0  0  0  0
  8 10  1  0  0  0  0
 10 11  1  0  0  0  0
  2 12  1  0  0  0  0
 10 12  1  0  0  0  0
 10 13  1  0  0  0  0
  8 14  1  0  0  0  0
  6 15  1  0  0  0  0
  4 16  1  0  0  0  0
  1 17  1  0  0  0  0
  1 18  1  0  0  0  0
  1 19  1  0  0  0  0
 13 20  1  0  0  0  0
 14 21  1  0  0  0  0
 15 22  1  0  0  0  0
 16 23  1  0  0  0  0
 17 24  1  0  0  0  0
M  END
