 xtb: 6.7.1 (edcfbbe)
          04062518003D

 24 24  0     0  0            999 V2000
   -2.4538   -0.5580   -0.2197 C   0  0  0  0  0  0  0  0  0  0  0  0
   -1.0173   -0.2359    0.1836 C   0  0  0  0  0  0  0  0  0  0  0  0
   -0.9343   -0.3678    1.2724 H   0  0  0  0  0  0  0  0  0  0  0  0
   -0.6270    1.2116   -0.1840 C   0  0  0  0  0  0  0  0  0  0  0  0
   -1.1308    1.4931   -1.1153 H   0  0  0  0  0  0  0  0  0  0  0  0
    0.9029    1.2997   -0.4048 C   0  0  0  0  0  0  0  0  0  0  0  0
    1.2253    2.3059   -0.0982 H   0  0  0  0  0  0  0  0  0  0  0  0
    1.6082    0.2693    0.4865 C   0  0  0  0  0  0  0  0  0  0  0  0
    2.6891    0.3291    0.3054 H   0  0  0  0  0  0  0  0  0  0  0  0
    1.1572   -1.1526    0.0539 C   0  0  0  0  0  0  0  0  0  0  0  0
    1.2045   -1.8292    0.9248 H   0  0  0  0  0  0  0  0  0  0  0  0
   -0.1538   -1.1515   -0.4681 O   0  0  0  0  0  0  0  0  0  0  0  0
    2.0024   -1.6857   -0.8992 O   0  0  0  0  0  0  0  0  0  0  0  0
    1.2924    0.5684    1.8230 O   0  0  0  0  0  0  0  0  0  0  0  0
    1.2877    1.0277   -1.7274 O   0  0  0  0  0  0  0  0  0  0  0  0
   -1.0666    2.1323    0.7770 O   0  0  0  0  0  0  0  0  0  0  0  0
   -2.9048   -1.6521    0.5447 O   0  0  0  0  0  0  0  0  0  0  0  0
   -2.4630   -0.7923   -1.2900 H   0  0  0  0  0  0  0  0  0  0  0  0
   -3.0690    0.3297   -0.0232 H   0  0  0  0  0  0  0  0  0  0  0  0
    1.9089   -1.1624   -1.7142 H   0  0  0  0  0  0  0  0  0  0  0  0
    1.8953    0.1037    2.4200 H   0  0  0  0  0  0  0  0  0  0  0  0
    0.9396    1.7097   -2.3192 H   0  0  0  0  0  0  0  0  0  0  0  0
   -0.6245    1.9392    1.6186 H   0  0  0  0  0  0  0  0  0  0  0  0
   -3.7786   -1.9230    0.2300 H   0  0  0  0  0  0  0  0  0  0  0  0
  1  2  1  0  0  0  0
  2  3  1  0  0  0  0
  2  4  1  0  0  0  0
  4  5  1  0  0  0  0
  4  6  1  0  0  0  0
  6  7  1  0  0  0  0
  6  8  1  0  0  0  0
  8  9  1  0  0  0  0
  8 10  1  0  0  0  0
 10 11  1  0  0  0  0
  2 12  1  0  0  0  0
 10 12  1  0  0  0  0
 10 13  1  0  0  0  0
  8 14  1  0  0  0  0
  6 15  1  0  0  0  0
  4 16  1  0  0  0  0
  1 17  1  0  0  0  0
  1 18  1  0  0  0  0
  1 19  1  0  0  0  0
 13 20  1  0  0  0  0
 14 21  1  0  0  0  0
 15 22  1  0  0  0  0
 16 23  1  0  0  0  0
 17 24  1  0  0  0  0
M  END
