 xtb: 6.7.1 (edcfbbe)
          04062518003D

 24 24  0     0  0            999 V2000
   -2.2830   -0.9483   -0.3311 C   0  0  0  0  0  0  0  0  0  0  0  0
   -1.1456   -0.2224    0.3979 C   0  0  0  0  0  0  0  0  0  0  0  0
   -1.5506    0.2298    1.3115 H   0  0  0  0  0  0  0  0  0  0  0  0
   -0.5524    0.8890   -0.4683 C   0  0  0  0  0  0  0  0  0  0  0  0
   -0.3874    0.5116   -1.4918 H   0  0  0  0  0  0  0  0  0  0  0  0
    0.7973    1.3129    0.1308 C   0  0  0  0  0  0  0  0  0  0  0  0
    0.6633    1.5632    1.1891 H   0  0  0  0  0  0  0  0  0  0  0  0
    1.7894    0.1472    0.0389 C   0  0  0  0  0  0  0  0  0  0  0  0
    2.2809    0.1764   -0.9444 H   0  0  0  0  0  0  0  0  0  0  0  0
    1.0417   -1.2090    0.1096 C   0  0  0  0  0  0  0  0  0  0  0  0
    1.6523   -1.9144    0.6921 H   0  0  0  0  0  0  0  0  0  0  0  0
   -0.1573   -1.1597    0.8345 O   0  0  0  0  0  0  0  0  0  0  0  0
    0.8631   -1.6531   -1.2020 O   0  0  0  0  0  0  0  0  0  0  0  0
    2.7226    0.2916    1.0763 O   0  0  0  0  0  0  0  0  0  0  0  0
    1.2601    2.4908   -0.4750 O   0  0  0  0  0  0  0  0  0  0  0  0
   -1.4544    1.9638   -0.5038 O   0  0  0  0  0  0  0  0  0  0  0  0
   -2.9787   -1.8314    0.5121 O   0  0  0  0  0  0  0  0  0  0  0  0
   -1.8739   -1.4836   -1.1985 H   0  0  0  0  0  0  0  0  0  0  0  0
   -3.0045   -0.2058   -0.6764 H   0  0  0  0  0  0  0  0  0  0  0  0
    0.5912   -2.5835   -1.2124 H   0  0  0  0  0  0  0  0  0  0  0  0
    3.4961   -0.2694    0.9206 H   0  0  0  0  0  0  0  0  0  0  0  0
    1.5535    2.3063   -1.3803 H   0  0  0  0  0  0  0  0  0  0  0  0
   -0.9388    2.7843   -0.5899 H   0  0  0  0  0  0  0  0  0  0  0  0
   -2.3314   -2.3685    0.9928 H   0  0  0  0  0  0  0  0  0  0  0  0
  1  2  1  0  0  0  0
  2  3  1  0  0  0  0
  2  4  1  0  0  0  0
  4  5  1  0  0  0  0
  4  6  1  0  0  0  0
  6  7  1  0  0  0  0
  6  8  1  0  0  0  0
  8  9  1  0  0  0  0
  8 10  1  0  0  0  0
 10 11  1  0  0  0  0
  2 12  1  0  0  0  0
 10 12  1  0  0  0  0
 10 13  1  0  0  0  0
  8 14  1  0  0  0  0
  6 15  1  0  0  0  0
  4 16  1  0  0  0  0
  1 17  1  0  0  0  0
  1 18  1  0  0  0  0
  1 19  1  0  0  0  0
 13 20  1  0  0  0  0
 14 21  1  0  0  0  0
 15 22  1  0  0  0  0
 16 23  1  0  0  0  0
 17 24  1  0  0  0  0
M  END
