 xtb: 6.7.1 (edcfbbe)
          04052516073D

 27 27  0     0  0            999 V2000
   -2.7583    0.7292    0.8309 C   0  0  0  0  0  0  0  0  0  0  0  0
   -1.3235    0.5746    0.3285 C   0  0  0  0  0  0  0  0  0  0  0  0
   -0.6430    0.9284    1.1132 H   0  0  0  0  0  0  0  0  0  0  0  0
   -1.0718    1.3739   -0.9505 C   0  0  0  0  0  0  0  0  0  0  0  0
    0.3830    1.2924   -1.4384 C   0  0  0  0  0  0  0  0  0  0  0  0
    1.0835   -0.0020   -1.0012 C   0  0  0  0  0  0  0  0  0  0  0  0
    1.8232   -0.2679   -1.7657 H   0  0  0  0  0  0  0  0  0  0  0  0
    0.0388   -1.1293   -0.9572 C   0  0  0  0  0  0  0  0  0  0  0  0
   -0.9627   -0.8794    0.1344 C   0  0  0  0  0  0  0  0  0  0  0  0
   -1.4233   -1.7751    0.8177 O   0  0  0  0  0  0  0  0  0  0  0  0
    1.8452    0.0636    0.3075 C   0  0  0  0  0  0  0  0  0  0  0  0
    1.9386    1.1270    1.0909 C   0  0  0  0  0  0  0  0  0  0  0  0
    2.5399   -1.2152    0.6833 C   0  0  0  0  0  0  0  0  0  0  0  0
   -2.9218    0.0793    1.6872 H   0  0  0  0  0  0  0  0  0  0  0  0
   -2.9516    1.7572    1.1238 H   0  0  0  0  0  0  0  0  0  0  0  0
   -3.4634    0.4486    0.0512 H   0  0  0  0  0  0  0  0  0  0  0  0
   -1.7430    0.9931   -1.7233 H   0  0  0  0  0  0  0  0  0  0  0  0
   -1.3439    2.4152   -0.7751 H   0  0  0  0  0  0  0  0  0  0  0  0
    0.3832    1.3363   -2.5284 H   0  0  0  0  0  0  0  0  0  0  0  0
    0.9530    2.1515   -1.0907 H   0  0  0  0  0  0  0  0  0  0  0  0
   -0.5078   -1.1395   -1.9034 H   0  0  0  0  0  0  0  0  0  0  0  0
    0.4874   -2.1133   -0.8241 H   0  0  0  0  0  0  0  0  0  0  0  0
    2.5197    1.0942    1.9976 H   0  0  0  0  0  0  0  0  0  0  0  0
    1.4603    2.0679    0.8868 H   0  0  0  0  0  0  0  0  0  0  0  0
    1.8226   -1.9219    1.1011 H   0  0  0  0  0  0  0  0  0  0  0  0
    3.0047   -1.6769   -0.1852 H   0  0  0  0  0  0  0  0  0  0  0  0
    3.3030   -1.0315    1.4345 H   0  0  0  0  0  0  0  0  0  0  0  0
  1  2  1  0  0  0  0
  2  3  1  0  0  0  0
  2  4  1  0  0  0  0
  4  5  1  0  0  0  0
  5  6  1  0  0  0  0
  6  7  1  0  0  0  0
  6  8  1  0  0  0  0
  2  9  1  0  0  0  0
  8  9  1  0  0  0  0
  9 10  2  0  0  0  0
  6 11  1  0  0  0  0
 11 12  2  0  0  0  0
 11 13  1  0  0  0  0
  1 14  1  0  0  0  0
  1 15  1  0  0  0  0
  1 16  1  0  0  0  0
  4 17  1  0  0  0  0
  4 18  1  0  0  0  0
  5 19  1  0  0  0  0
  5 20  1  0  0  0  0
  8 21  1  0  0  0  0
  8 22  1  0  0  0  0
 12 23  1  0  0  0  0
 12 24  1  0  0  0  0
 13 25  1  0  0  0  0
 13 26  1  0  0  0  0
 13 27  1  0  0  0  0
M  END
