 xtb: 6.7.1 (edcfbbe)
          04042523483D

 16 15  0     0  0            999 V2000
    1.4447    0.0313    1.1803 C   0  0  0  0  0  0  0  0  0  0  0  0
    0.6820    0.4579   -0.0783 C   0  0  0  0  0  0  0  0  0  0  0  0
    1.3913   -0.0317   -1.3379 C   0  0  0  0  0  0  0  0  0  0  0  0
   -0.7510   -0.0400   -0.0337 C   0  0  0  0  0  0  0  0  0  0  0  0
   -1.2242   -0.7346   -0.9121 O   0  0  0  0  0  0  0  0  0  0  0  0
   -1.5550    0.3744    1.1655 C   0  0  0  0  0  0  0  0  0  0  0  0
    2.4782    0.3583    1.1036 H   0  0  0  0  0  0  0  0  0  0  0  0
    1.0115    0.4680    2.0744 H   0  0  0  0  0  0  0  0  0  0  0  0
    1.4352   -1.0521    1.2751 H   0  0  0  0  0  0  0  0  0  0  0  0
    0.6305    1.5525   -0.1008 H   0  0  0  0  0  0  0  0  0  0  0  0
    1.4612   -1.1172   -1.3306 H   0  0  0  0  0  0  0  0  0  0  0  0
    2.3924    0.3861   -1.3968 H   0  0  0  0  0  0  0  0  0  0  0  0
    0.8329    0.2608   -2.2242 H   0  0  0  0  0  0  0  0  0  0  0  0
   -2.6154    0.3035    0.9382 H   0  0  0  0  0  0  0  0  0  0  0  0
   -1.2995    1.3793    1.4846 H   0  0  0  0  0  0  0  0  0  0  0  0
   -1.3365   -0.3153    1.9787 H   0  0  0  0  0  0  0  0  0  0  0  0
  1  2  1  0  0  0  0
  2  3  1  0  0  0  0
  2  4  1  0  0  0  0
  4  5  2  0  0  0  0
  4  6  1  0  0  0  0
  1  7  1  0  0  0  0
  1  8  1  0  0  0  0
  1  9  1  0  0  0  0
  2 10  1  0  0  0  0
  3 11  1  0  0  0  0
  3 12  1  0  0  0  0
  3 13  1  0  0  0  0
  6 14  1  0  0  0  0
  6 15  1  0  0  0  0
  6 16  1  0  0  0  0
M  END
