 xtb: 6.7.1 (edcfbbe)
          04042516023D

 14 13  0     0  0            999 V2000
   -2.1136   -0.5423    0.7084 C   0  0  0  0  0  0  0  0  0  0  0  0
   -1.3556   -0.3282   -0.6055 C   0  0  0  0  0  0  0  0  0  0  0  0
   -0.0077    0.2732   -0.3079 C   0  0  0  0  0  0  0  0  0  0  0  0
    0.2551    1.4571   -0.3535 O   0  0  0  0  0  0  0  0  0  0  0  0
    0.8726   -0.6527    0.0535 O   0  0  0  0  0  0  0  0  0  0  0  0
    2.1848   -0.2170    0.4166 C   0  0  0  0  0  0  0  0  0  0  0  0
   -3.0935   -0.9613    0.5013 H   0  0  0  0  0  0  0  0  0  0  0  0
   -1.5662   -1.2264    1.3514 H   0  0  0  0  0  0  0  0  0  0  0  0
   -2.2404    0.4039    1.2292 H   0  0  0  0  0  0  0  0  0  0  0  0
   -1.9054    0.3570   -1.2494 H   0  0  0  0  0  0  0  0  0  0  0  0
   -1.2112   -1.2839   -1.1073 H   0  0  0  0  0  0  0  0  0  0  0  0
    2.6892   -1.0961    0.8049 H   0  0  0  0  0  0  0  0  0  0  0  0
    2.1230    0.5682    1.1710 H   0  0  0  0  0  0  0  0  0  0  0  0
    2.7012    0.1739   -0.4608 H   0  0  0  0  0  0  0  0  0  0  0  0
  1  2  1  0  0  0  0
  2  3  1  0  0  0  0
  3  4  2  0  0  0  0
  3  5  1  0  0  0  0
  5  6  1  0  0  0  0
  1  7  1  0  0  0  0
  1  8  1  0  0  0  0
  1  9  1  0  0  0  0
  2 10  1  0  0  0  0
  2 11  1  0  0  0  0
  6 12  1  0  0  0  0
  6 13  1  0  0  0  0
  6 14  1  0  0  0  0
M  END
