 xtb: 6.7.1 (edcfbbe)
          04062518003D

 24 24  0     0  0            999 V2000
   -2.5347   -0.9811    0.2947 C   0  0  0  0  0  0  0  0  0  0  0  0
   -1.1116   -0.4920    0.6040 C   0  0  0  0  0  0  0  0  0  0  0  0
   -0.9761   -0.4507    1.6960 H   0  0  0  0  0  0  0  0  0  0  0  0
   -0.8348    0.9049    0.0178 C   0  0  0  0  0  0  0  0  0  0  0  0
   -1.0338    0.8808   -1.0619 H   0  0  0  0  0  0  0  0  0  0  0  0
    0.6406    1.2799    0.2327 C   0  0  0  0  0  0  0  0  0  0  0  0
    0.8058    1.3929    1.3180 H   0  0  0  0  0  0  0  0  0  0  0  0
    1.5574    0.1715   -0.3025 C   0  0  0  0  0  0  0  0  0  0  0  0
    1.4367    0.1137   -1.3898 H   0  0  0  0  0  0  0  0  0  0  0  0
    1.1368   -1.1752    0.3316 C   0  0  0  0  0  0  0  0  0  0  0  0
    1.2777   -1.1232    1.4251 H   0  0  0  0  0  0  0  0  0  0  0  0
   -0.2206   -1.4402    0.0430 O   0  0  0  0  0  0  0  0  0  0  0  0
    1.8955   -2.2401   -0.0943 O   0  0  0  0  0  0  0  0  0  0  0  0
    2.9172    0.4327   -0.1002 O   0  0  0  0  0  0  0  0  0  0  0  0
    0.9546    2.4798   -0.4260 O   0  0  0  0  0  0  0  0  0  0  0  0
   -1.6003    1.9047    0.6482 O   0  0  0  0  0  0  0  0  0  0  0  0
   -2.8383   -0.9298   -1.0745 O   0  0  0  0  0  0  0  0  0  0  0  0
   -3.2575   -0.3387    0.7995 H   0  0  0  0  0  0  0  0  0  0  0  0
   -2.6341   -2.0013    0.6816 H   0  0  0  0  0  0  0  0  0  0  0  0
    1.8144   -2.3489   -1.0549 H   0  0  0  0  0  0  0  0  0  0  0  0
    3.0945    0.5931    0.8378 H   0  0  0  0  0  0  0  0  0  0  0  0
    0.3229    3.1573   -0.1391 H   0  0  0  0  0  0  0  0  0  0  0  0
   -2.5096    1.8749    0.3208 H   0  0  0  0  0  0  0  0  0  0  0  0
   -2.2701   -1.5596   -1.5397 H   0  0  0  0  0  0  0  0  0  0  0  0
  1  2  1  0  0  0  0
  2  3  1  0  0  0  0
  2  4  1  0  0  0  0
  4  5  1  0  0  0  0
  4  6  1  0  0  0  0
  6  7  1  0  0  0  0
  6  8  1  0  0  0  0
  8  9  1  0  0  0  0
  8 10  1  0  0  0  0
 10 11  1  0  0  0  0
  2 12  1  0  0  0  0
 10 12  1  0  0  0  0
 10 13  1  0  0  0  0
  8 14  1  0  0  0  0
  6 15  1  0  0  0  0
  4 16  1  0  0  0  0
  1 17  1  0  0  0  0
  1 18  1  0  0  0  0
  1 19  1  0  0  0  0
 13 20  1  0  0  0  0
 14 21  1  0  0  0  0
 15 22  1  0  0  0  0
 16 23  1  0  0  0  0
 17 24  1  0  0  0  0
M  END
