 xtb: 6.7.1 (edcfbbe)
          04062518003D

 24 24  0     0  0            999 V2000
   -2.1874   -0.9193   -0.1772 C   0  0  0  0  0  0  0  0  0  0  0  0
   -1.1338   -0.3567    0.7911 C   0  0  0  0  0  0  0  0  0  0  0  0
   -1.6094   -0.3478    1.7803 H   0  0  0  0  0  0  0  0  0  0  0  0
   -0.7332    1.1056    0.4931 C   0  0  0  0  0  0  0  0  0  0  0  0
   -1.5873    1.6038    0.0213 H   0  0  0  0  0  0  0  0  0  0  0  0
    0.4821    1.2490   -0.4455 C   0  0  0  0  0  0  0  0  0  0  0  0
    0.8609    2.2722   -0.3232 H   0  0  0  0  0  0  0  0  0  0  0  0
    1.6059    0.2910   -0.0049 C   0  0  0  0  0  0  0  0  0  0  0  0
    2.3751    0.2909   -0.7888 H   0  0  0  0  0  0  0  0  0  0  0  0
    1.0792   -1.1482    0.1273 C   0  0  0  0  0  0  0  0  0  0  0  0
    1.8343   -1.7588    0.6539 H   0  0  0  0  0  0  0  0  0  0  0  0
   -0.0333   -1.2457    0.9786 O   0  0  0  0  0  0  0  0  0  0  0  0
    0.8576   -1.6413   -1.1527 O   0  0  0  0  0  0  0  0  0  0  0  0
    2.1055    0.7644    1.2220 O   0  0  0  0  0  0  0  0  0  0  0  0
    0.1692    1.1200   -1.8000 O   0  0  0  0  0  0  0  0  0  0  0  0
   -0.5074    1.8035    1.6968 O   0  0  0  0  0  0  0  0  0  0  0  0
   -1.7632   -0.8528   -1.5199 O   0  0  0  0  0  0  0  0  0  0  0  0
   -3.1030   -0.3347   -0.0315 H   0  0  0  0  0  0  0  0  0  0  0  0
   -2.3772   -1.9610    0.1121 H   0  0  0  0  0  0  0  0  0  0  0  0
    0.5486   -2.5585   -1.1099 H   0  0  0  0  0  0  0  0  0  0  0  0
    2.9022    0.2757    1.4739 H   0  0  0  0  0  0  0  0  0  0  0  0
   -0.2908    0.2698   -1.9403 H   0  0  0  0  0  0  0  0  0  0  0  0
    0.3628    1.5453    2.0438 H   0  0  0  0  0  0  0  0  0  0  0  0
   -2.4923   -1.1098   -2.1010 H   0  0  0  0  0  0  0  0  0  0  0  0
  1  2  1  0  0  0  0
  2  3  1  0  0  0  0
  2  4  1  0  0  0  0
  4  5  1  0  0  0  0
  4  6  1  0  0  0  0
  6  7  1  0  0  0  0
  6  8  1  0  0  0  0
  8  9  1  0  0  0  0
  8 10  1  0  0  0  0
 10 11  1  0  0  0  0
  2 12  1  0  0  0  0
 10 12  1  0  0  0  0
 10 13  1  0  0  0  0
  8 14  1  0  0  0  0
  6 15  1  0  0  0  0
  4 16  1  0  0  0  0
  1 17  1  0  0  0  0
  1 18  1  0  0  0  0
  1 19  1  0  0  0  0
 13 20  1  0  0  0  0
 14 21  1  0  0  0  0
 15 22  1  0  0  0  0
 16 23  1  0  0  0  0
 17 24  1  0  0  0  0
M  END
