 xtb: 6.7.1 (edcfbbe)
          04052516073D

 27 27  0     0  0            999 V2000
   -2.8607    0.5837   -0.5445 C   0  0  0  0  0  0  0  0  0  0  0  0
   -1.7300    0.5148    0.4906 C   0  0  0  0  0  0  0  0  0  0  0  0
   -2.1799    0.6173    1.4848 H   0  0  0  0  0  0  0  0  0  0  0  0
   -0.6906    1.6226    0.2877 C   0  0  0  0  0  0  0  0  0  0  0  0
    0.1773    1.4011   -0.9457 C   0  0  0  0  0  0  0  0  0  0  0  0
    0.8502    0.0214   -0.9994 C   0  0  0  0  0  0  0  0  0  0  0  0
    1.2175   -0.1148   -2.0225 H   0  0  0  0  0  0  0  0  0  0  0  0
   -0.1757   -1.0963   -0.7393 C   0  0  0  0  0  0  0  0  0  0  0  0
   -1.0930   -0.8526    0.4230 C   0  0  0  0  0  0  0  0  0  0  0  0
   -1.3649   -1.7257    1.2297 O   0  0  0  0  0  0  0  0  0  0  0  0
    2.0625   -0.1016   -0.1034 C   0  0  0  0  0  0  0  0  0  0  0  0
    3.2737   -0.1671   -0.6382 C   0  0  0  0  0  0  0  0  0  0  0  0
    1.8812   -0.1463    1.3842 C   0  0  0  0  0  0  0  0  0  0  0  0
   -3.3980    1.5214   -0.4301 H   0  0  0  0  0  0  0  0  0  0  0  0
   -2.4735    0.5253   -1.5568 H   0  0  0  0  0  0  0  0  0  0  0  0
   -3.5593   -0.2362   -0.3911 H   0  0  0  0  0  0  0  0  0  0  0  0
   -1.2125    2.5767    0.1907 H   0  0  0  0  0  0  0  0  0  0  0  0
   -0.0663    1.6822    1.1782 H   0  0  0  0  0  0  0  0  0  0  0  0
   -0.4382    1.5138   -1.8395 H   0  0  0  0  0  0  0  0  0  0  0  0
    0.9508    2.1701   -0.9825 H   0  0  0  0  0  0  0  0  0  0  0  0
   -0.8213   -1.1798   -1.6170 H   0  0  0  0  0  0  0  0  0  0  0  0
    0.3285   -2.0552   -0.6029 H   0  0  0  0  0  0  0  0  0  0  0  0
    4.1577   -0.2546   -0.0294 H   0  0  0  0  0  0  0  0  0  0  0  0
    3.4349   -0.1275   -1.7020 H   0  0  0  0  0  0  0  0  0  0  0  0
    2.7230   -0.6520    1.8512 H   0  0  0  0  0  0  0  0  0  0  0  0
    1.8365    0.8632    1.7917 H   0  0  0  0  0  0  0  0  0  0  0  0
    0.9681   -0.6666    1.6616 H   0  0  0  0  0  0  0  0  0  0  0  0
  1  2  1  0  0  0  0
  2  3  1  0  0  0  0
  2  4  1  0  0  0  0
  4  5  1  0  0  0  0
  5  6  1  0  0  0  0
  6  7  1  0  0  0  0
  6  8  1  0  0  0  0
  2  9  1  0  0  0  0
  8  9  1  0  0  0  0
  9 10  2  0  0  0  0
  6 11  1  0  0  0  0
 11 12  2  0  0  0  0
 11 13  1  0  0  0  0
  1 14  1  0  0  0  0
  1 15  1  0  0  0  0
  1 16  1  0  0  0  0
  4 17  1  0  0  0  0
  4 18  1  0  0  0  0
  5 19  1  0  0  0  0
  5 20  1  0  0  0  0
  8 21  1  0  0  0  0
  8 22  1  0  0  0  0
 12 23  1  0  0  0  0
 12 24  1  0  0  0  0
 13 25  1  0  0  0  0
 13 26  1  0  0  0  0
 13 27  1  0  0  0  0
M  END
