 xtb: 6.7.1 (edcfbbe)
          04062518003D

 24 24  0     0  0            999 V2000
   -2.4349   -0.2170   -0.5953 C   0  0  0  0  0  0  0  0  0  0  0  0
   -1.2179   -0.2175    0.3368 C   0  0  0  0  0  0  0  0  0  0  0  0
   -1.5143   -0.5976    1.3287 H   0  0  0  0  0  0  0  0  0  0  0  0
   -0.6109    1.1924    0.5082 C   0  0  0  0  0  0  0  0  0  0  0  0
   -1.3678    1.9403    0.2441 H   0  0  0  0  0  0  0  0  0  0  0  0
    0.5810    1.3655   -0.4460 C   0  0  0  0  0  0  0  0  0  0  0  0
    1.0193    2.3576   -0.2597 H   0  0  0  0  0  0  0  0  0  0  0  0
    1.6674    0.3180   -0.1037 C   0  0  0  0  0  0  0  0  0  0  0  0
    2.2838    0.1307   -0.9895 H   0  0  0  0  0  0  0  0  0  0  0  0
    1.0058   -1.0176    0.3279 C   0  0  0  0  0  0  0  0  0  0  0  0
    0.9501   -1.0436    1.4291 H   0  0  0  0  0  0  0  0  0  0  0  0
   -0.2843   -1.1270   -0.2272 O   0  0  0  0  0  0  0  0  0  0  0  0
    1.7311   -2.1324   -0.0452 O   0  0  0  0  0  0  0  0  0  0  0  0
    2.5530    0.8023    0.8704 O   0  0  0  0  0  0  0  0  0  0  0  0
    0.1005    1.2662   -1.7590 O   0  0  0  0  0  0  0  0  0  0  0  0
   -0.1223    1.4056    1.8126 O   0  0  0  0  0  0  0  0  0  0  0  0
   -3.0502   -1.4778   -0.6542 O   0  0  0  0  0  0  0  0  0  0  0  0
   -2.1053    0.1108   -1.5881 H   0  0  0  0  0  0  0  0  0  0  0  0
   -3.1921    0.4707   -0.2153 H   0  0  0  0  0  0  0  0  0  0  0  0
    1.6314   -2.2750   -0.9997 H   0  0  0  0  0  0  0  0  0  0  0  0
    2.0419    1.0641    1.6532 H   0  0  0  0  0  0  0  0  0  0  0  0
    0.8023    1.5002   -2.3834 H   0  0  0  0  0  0  0  0  0  0  0  0
   -0.8582    1.5505    2.4240 H   0  0  0  0  0  0  0  0  0  0  0  0
   -2.3867   -2.1257   -0.9319 H   0  0  0  0  0  0  0  0  0  0  0  0
  1  2  1  0  0  0  0
  2  3  1  0  0  0  0
  2  4  1  0  0  0  0
  4  5  1  0  0  0  0
  4  6  1  0  0  0  0
  6  7  1  0  0  0  0
  6  8  1  0  0  0  0
  8  9  1  0  0  0  0
  8 10  1  0  0  0  0
 10 11  1  0  0  0  0
  2 12  1  0  0  0  0
 10 12  1  0  0  0  0
 10 13  1  0  0  0  0
  8 14  1  0  0  0  0
  6 15  1  0  0  0  0
  4 16  1  0  0  0  0
  1 17  1  0  0  0  0
  1 18  1  0  0  0  0
  1 19  1  0  0  0  0
 13 20  1  0  0  0  0
 14 21  1  0  0  0  0
 15 22  1  0  0  0  0
 16 23  1  0  0  0  0
 17 24  1  0  0  0  0
M  END
