 xtb: 6.7.1 (edcfbbe)
          04052509003D

 22 23  0     0  0            999 V2000
   -3.5270    0.0007   -0.0013 C   0  0  0  0  0  0  0  0  0  0  0  0
   -2.8421    0.9143    0.7816 C   0  0  0  0  0  0  0  0  0  0  0  0
   -1.4580    0.9060    0.7747 C   0  0  0  0  0  0  0  0  0  0  0  0
   -0.7398    0.0008   -0.0007 C   0  0  0  0  0  0  0  0  0  0  0  0
   -1.4577   -0.9043   -0.7767 C   0  0  0  0  0  0  0  0  0  0  0  0
   -2.8417   -0.9127   -0.7841 C   0  0  0  0  0  0  0  0  0  0  0  0
   -0.5807   -2.0355   -1.7564 Cl  0  0  0  0  0  0  0  0  0  0  0  0
    0.7398   -0.0002    0.0003 C   0  0  0  0  0  0  0  0  0  0  0  0
    1.4595    0.9042   -0.7747 C   0  0  0  0  0  0  0  0  0  0  0  0
    2.8435    0.9111   -0.7807 C   0  0  0  0  0  0  0  0  0  0  0  0
    3.5270   -0.0031    0.0028 C   0  0  0  0  0  0  0  0  0  0  0  0
    2.8402   -0.9159    0.7850 C   0  0  0  0  0  0  0  0  0  0  0  0
    1.4563   -0.9061    0.7767 C   0  0  0  0  0  0  0  0  0  0  0  0
    0.5775   -2.0365    1.7557 Cl  0  0  0  0  0  0  0  0  0  0  0  0
    0.5847    2.0366   -1.7552 Cl  0  0  0  0  0  0  0  0  0  0  0  0
   -0.5815    2.0374    1.7547 Cl  0  0  0  0  0  0  0  0  0  0  0  0
   -4.6045    0.0004   -0.0012 H   0  0  0  0  0  0  0  0  0  0  0  0
   -3.3693    1.6271    1.3935 H   0  0  0  0  0  0  0  0  0  0  0  0
   -3.3686   -1.6256   -1.3961 H   0  0  0  0  0  0  0  0  0  0  0  0
    3.3719    1.6234   -1.3921 H   0  0  0  0  0  0  0  0  0  0  0  0
    4.6045   -0.0043    0.0036 H   0  0  0  0  0  0  0  0  0  0  0  0
    3.3660   -1.6293    1.3974 H   0  0  0  0  0  0  0  0  0  0  0  0
  1  2  4  0  0  0  0
  2  3  4  0  0  0  0
  3  4  4  0  0  0  0
  4  5  4  0  0  0  0
  1  6  4  0  0  0  0
  5  6  4  0  0  0  0
  5  7  1  0  0  0  0
  4  8  1  0  0  0  0
  8  9  4  0  0  0  0
  9 10  4  0  0  0  0
 10 11  4  0  0  0  0
 11 12  4  0  0  0  0
  8 13  4  0  0  0  0
 12 13  4  0  0  0  0
 13 14  1  0  0  0  0
  9 15  1  0  0  0  0
  3 16  1  0  0  0  0
  1 17  1  0  0  0  0
  2 18  1  0  0  0  0
  6 19  1  0  0  0  0
 10 20  1  0  0  0  0
 11 21  1  0  0  0  0
 12 22  1  0  0  0  0
M  END
