 xtb: 6.7.1 (edcfbbe)
          04062520053D

 27 27  0     0  0            999 V2000
   -3.2941    0.3892   -0.5769 C   0  0  0  0  0  0  0  0  0  0  0  0
   -1.8747    0.5044   -0.1224 C   0  0  0  0  0  0  0  0  0  0  0  0
   -1.1031    1.5662   -0.3223 C   0  0  0  0  0  0  0  0  0  0  0  0
    0.3213    1.5273    0.1310 C   0  0  0  0  0  0  0  0  0  0  0  0
    0.9408    0.2265   -0.4042 C   0  0  0  0  0  0  0  0  0  0  0  0
    0.8428    0.2625   -1.4952 H   0  0  0  0  0  0  0  0  0  0  0  0
    0.1450   -0.9914    0.1078 C   0  0  0  0  0  0  0  0  0  0  0  0
   -1.2565   -0.6418    0.6487 C   0  0  0  0  0  0  0  0  0  0  0  0
   -1.1439   -0.3117    1.6974 H   0  0  0  0  0  0  0  0  0  0  0  0
   -2.0080   -1.8403    0.6192 O   0  0  0  0  0  0  0  0  0  0  0  0
    2.4065    0.0507   -0.0851 C   0  0  0  0  0  0  0  0  0  0  0  0
    3.0353    0.6742    0.8983 C   0  0  0  0  0  0  0  0  0  0  0  0
    3.1154   -0.9247   -0.9776 C   0  0  0  0  0  0  0  0  0  0  0  0
   -3.5537    1.2299   -1.2140 H   0  0  0  0  0  0  0  0  0  0  0  0
   -3.9731    0.3798    0.2758 H   0  0  0  0  0  0  0  0  0  0  0  0
   -3.4323   -0.5367   -1.1331 H   0  0  0  0  0  0  0  0  0  0  0  0
   -1.4640    2.4393   -0.8437 H   0  0  0  0  0  0  0  0  0  0  0  0
    0.8796    2.3864   -0.2391 H   0  0  0  0  0  0  0  0  0  0  0  0
    0.3639    1.5293    1.2234 H   0  0  0  0  0  0  0  0  0  0  0  0
   -0.0039   -1.7148   -0.6948 H   0  0  0  0  0  0  0  0  0  0  0  0
    0.6961   -1.4927    0.9053 H   0  0  0  0  0  0  0  0  0  0  0  0
   -2.8588   -1.6933    1.0526 H   0  0  0  0  0  0  0  0  0  0  0  0
    4.0807    0.5002    1.0915 H   0  0  0  0  0  0  0  0  0  0  0  0
    2.5512    1.3797    1.5493 H   0  0  0  0  0  0  0  0  0  0  0  0
    2.6122   -1.8896   -0.9559 H   0  0  0  0  0  0  0  0  0  0  0  0
    3.1025   -0.5672   -2.0063 H   0  0  0  0  0  0  0  0  0  0  0  0
    4.1479   -1.0588   -0.6675 H   0  0  0  0  0  0  0  0  0  0  0  0
  1  2  1  0  0  0  0
  2  3  2  0  0  0  0
  3  4  1  0  0  0  0
  4  5  1  0  0  0  0
  5  6  1  0  0  0  0
  5  7  1  0  0  0  0
  2  8  1  0  0  0  0
  7  8  1  0  0  0  0
  8  9  1  0  0  0  0
  8 10  1  0  0  0  0
  5 11  1  0  0  0  0
 11 12  2  0  0  0  0
 11 13  1  0  0  0  0
  1 14  1  0  0  0  0
  1 15  1  0  0  0  0
  1 16  1  0  0  0  0
  3 17  1  0  0  0  0
  4 18  1  0  0  0  0
  4 19  1  0  0  0  0
  7 20  1  0  0  0  0
  7 21  1  0  0  0  0
 10 22  1  0  0  0  0
 12 23  1  0  0  0  0
 12 24  1  0  0  0  0
 13 25  1  0  0  0  0
 13 26  1  0  0  0  0
 13 27  1  0  0  0  0
M  END
