 xtb: 6.7.1 (edcfbbe)
          04062518003D

 24 24  0     0  0            999 V2000
   -2.1480   -0.9731   -0.1587 C   0  0  0  0  0  0  0  0  0  0  0  0
   -1.1056   -0.3760    0.8022 C   0  0  0  0  0  0  0  0  0  0  0  0
   -1.5776   -0.3633    1.7926 H   0  0  0  0  0  0  0  0  0  0  0  0
   -0.7336    1.0892    0.4800 C   0  0  0  0  0  0  0  0  0  0  0  0
   -1.5855    1.5520   -0.0287 H   0  0  0  0  0  0  0  0  0  0  0  0
    0.4980    1.2538   -0.4328 C   0  0  0  0  0  0  0  0  0  0  0  0
    0.8638    2.2790   -0.2603 H   0  0  0  0  0  0  0  0  0  0  0  0
    1.6168    0.2889   -0.0009 C   0  0  0  0  0  0  0  0  0  0  0  0
    2.4159    0.2991   -0.7577 H   0  0  0  0  0  0  0  0  0  0  0  0
    1.0788   -1.1554    0.0881 C   0  0  0  0  0  0  0  0  0  0  0  0
    1.8460   -1.8058    0.5321 H   0  0  0  0  0  0  0  0  0  0  0  0
    0.0137   -1.2369    1.0009 O   0  0  0  0  0  0  0  0  0  0  0  0
    0.8077   -1.6901   -1.1618 O   0  0  0  0  0  0  0  0  0  0  0  0
    2.0896    0.7433    1.2446 O   0  0  0  0  0  0  0  0  0  0  0  0
    0.1204    1.0788   -1.7701 O   0  0  0  0  0  0  0  0  0  0  0  0
   -0.5499    1.8199    1.6690 O   0  0  0  0  0  0  0  0  0  0  0  0
   -1.7661   -0.8177   -1.5070 O   0  0  0  0  0  0  0  0  0  0  0  0
   -3.0984   -0.4611    0.0292 H   0  0  0  0  0  0  0  0  0  0  0  0
   -2.2510   -2.0365    0.0936 H   0  0  0  0  0  0  0  0  0  0  0  0
    0.0120   -1.2506   -1.5383 H   0  0  0  0  0  0  0  0  0  0  0  0
    2.7986    0.1671    1.5641 H   0  0  0  0  0  0  0  0  0  0  0  0
    0.8388    1.3549   -2.3565 H   0  0  0  0  0  0  0  0  0  0  0  0
    0.2936    1.5491    2.0685 H   0  0  0  0  0  0  0  0  0  0  0  0
   -2.4587   -1.1705   -2.0827 H   0  0  0  0  0  0  0  0  0  0  0  0
  1  2  1  0  0  0  0
  2  3  1  0  0  0  0
  2  4  1  0  0  0  0
  4  5  1  0  0  0  0
  4  6  1  0  0  0  0
  6  7  1  0  0  0  0
  6  8  1  0  0  0  0
  8  9  1  0  0  0  0
  8 10  1  0  0  0  0
 10 11  1  0  0  0  0
  2 12  1  0  0  0  0
 10 12  1  0  0  0  0
 10 13  1  0  0  0  0
  8 14  1  0  0  0  0
  6 15  1  0  0  0  0
  4 16  1  0  0  0  0
  1 17  1  0  0  0  0
  1 18  1  0  0  0  0
  1 19  1  0  0  0  0
 13 20  1  0  0  0  0
 14 21  1  0  0  0  0
 15 22  1  0  0  0  0
 16 23  1  0  0  0  0
 17 24  1  0  0  0  0
M  END
