 xtb: 6.7.1 (edcfbbe)
          04062518003D

 24 24  0     0  0            999 V2000
   -2.5546   -0.6609   -0.3570 C   0  0  0  0  0  0  0  0  0  0  0  0
   -1.1709   -0.3101    0.2046 C   0  0  0  0  0  0  0  0  0  0  0  0
   -1.2195   -0.2497    1.3043 H   0  0  0  0  0  0  0  0  0  0  0  0
   -0.6931    1.0508   -0.3224 C   0  0  0  0  0  0  0  0  0  0  0  0
   -0.6843    1.0259   -1.4229 H   0  0  0  0  0  0  0  0  0  0  0  0
    0.7387    1.3205    0.1595 C   0  0  0  0  0  0  0  0  0  0  0  0
    0.7331    1.4300    1.2562 H   0  0  0  0  0  0  0  0  0  0  0  0
    1.6484    0.1428   -0.1990 C   0  0  0  0  0  0  0  0  0  0  0  0
    1.7218    0.0608   -1.2939 H   0  0  0  0  0  0  0  0  0  0  0  0
    1.0279   -1.1620    0.3271 C   0  0  0  0  0  0  0  0  0  0  0  0
    0.9977   -1.1173    1.4382 H   0  0  0  0  0  0  0  0  0  0  0  0
   -0.2746   -1.3372   -0.1702 O   0  0  0  0  0  0  0  0  0  0  0  0
    1.8082   -2.2172   -0.1052 O   0  0  0  0  0  0  0  0  0  0  0  0
    2.9086    0.3829    0.3718 O   0  0  0  0  0  0  0  0  0  0  0  0
    1.1712    2.5163   -0.4401 O   0  0  0  0  0  0  0  0  0  0  0  0
   -1.5782    2.0353    0.1411 O   0  0  0  0  0  0  0  0  0  0  0  0
   -3.1701   -1.7335    0.3045 O   0  0  0  0  0  0  0  0  0  0  0  0
   -2.4342   -0.9786   -1.3942 H   0  0  0  0  0  0  0  0  0  0  0  0
   -3.1729    0.2424   -0.3173 H   0  0  0  0  0  0  0  0  0  0  0  0
    1.2998   -3.0410   -0.0435 H   0  0  0  0  0  0  0  0  0  0  0  0
    3.4827   -0.3783    0.2010 H   0  0  0  0  0  0  0  0  0  0  0  0
    2.1054    2.6506   -0.2221 H   0  0  0  0  0  0  0  0  0  0  0  0
   -1.2209    2.9030   -0.1042 H   0  0  0  0  0  0  0  0  0  0  0  0
   -3.3811   -1.4767    1.2136 H   0  0  0  0  0  0  0  0  0  0  0  0
  1  2  1  0  0  0  0
  2  3  1  0  0  0  0
  2  4  1  0  0  0  0
  4  5  1  0  0  0  0
  4  6  1  0  0  0  0
  6  7  1  0  0  0  0
  6  8  1  0  0  0  0
  8  9  1  0  0  0  0
  8 10  1  0  0  0  0
 10 11  1  0  0  0  0
  2 12  1  0  0  0  0
 10 12  1  0  0  0  0
 10 13  1  0  0  0  0
  8 14  1  0  0  0  0
  6 15  1  0  0  0  0
  4 16  1  0  0  0  0
  1 17  1  0  0  0  0
  1 18  1  0  0  0  0
  1 19  1  0  0  0  0
 13 20  1  0  0  0  0
 14 21  1  0  0  0  0
 15 22  1  0  0  0  0
 16 23  1  0  0  0  0
 17 24  1  0  0  0  0
M  END
