 xtb: 6.7.1 (edcfbbe)
          04062518003D

 24 24  0     0  0            999 V2000
   -2.1822   -1.1734   -0.0762 C   0  0  0  0  0  0  0  0  0  0  0  0
   -1.2227   -0.3271    0.7712 C   0  0  0  0  0  0  0  0  0  0  0  0
   -1.7421   -0.0727    1.7015 H   0  0  0  0  0  0  0  0  0  0  0  0
   -0.8640    0.9958    0.0703 C   0  0  0  0  0  0  0  0  0  0  0  0
   -1.0471    0.9135   -1.0118 H   0  0  0  0  0  0  0  0  0  0  0  0
    0.6266    1.2840    0.2674 C   0  0  0  0  0  0  0  0  0  0  0  0
    0.8344    1.3666    1.3473 H   0  0  0  0  0  0  0  0  0  0  0  0
    1.4302    0.1191   -0.3243 C   0  0  0  0  0  0  0  0  0  0  0  0
    1.2267    0.0642   -1.3999 H   0  0  0  0  0  0  0  0  0  0  0  0
    0.9999   -1.2164    0.3352 C   0  0  0  0  0  0  0  0  0  0  0  0
    1.8101   -1.5838    0.9785 H   0  0  0  0  0  0  0  0  0  0  0  0
   -0.0794   -1.0432    1.2253 O   0  0  0  0  0  0  0  0  0  0  0  0
    0.7855   -2.2240   -0.5928 O   0  0  0  0  0  0  0  0  0  0  0  0
    2.8113    0.3631   -0.2277 O   0  0  0  0  0  0  0  0  0  0  0  0
    0.9328    2.4974   -0.3758 O   0  0  0  0  0  0  0  0  0  0  0  0
   -1.6738    2.0061    0.6170 O   0  0  0  0  0  0  0  0  0  0  0  0
   -1.6711   -1.3453   -1.3863 O   0  0  0  0  0  0  0  0  0  0  0  0
   -3.1386   -0.6429   -0.1096 H   0  0  0  0  0  0  0  0  0  0  0  0
   -2.3110   -2.1431    0.4171 H   0  0  0  0  0  0  0  0  0  0  0  0
   -0.0260   -2.0171   -1.1076 H   0  0  0  0  0  0  0  0  0  0  0  0
    3.0962    0.3117    0.6967 H   0  0  0  0  0  0  0  0  0  0  0  0
    1.8852    2.5175   -0.5574 H   0  0  0  0  0  0  0  0  0  0  0  0
   -1.3600    2.8596    0.2804 H   0  0  0  0  0  0  0  0  0  0  0  0
   -2.3260   -1.8158   -1.9222 H   0  0  0  0  0  0  0  0  0  0  0  0
  1  2  1  0  0  0  0
  2  3  1  0  0  0  0
  2  4  1  0  0  0  0
  4  5  1  0  0  0  0
  4  6  1  0  0  0  0
  6  7  1  0  0  0  0
  6  8  1  0  0  0  0
  8  9  1  0  0  0  0
  8 10  1  0  0  0  0
 10 11  1  0  0  0  0
  2 12  1  0  0  0  0
 10 12  1  0  0  0  0
 10 13  1  0  0  0  0
  8 14  1  0  0  0  0
  6 15  1  0  0  0  0
  4 16  1  0  0  0  0
  1 17  1  0  0  0  0
  1 18  1  0  0  0  0
  1 19  1  0  0  0  0
 13 20  1  0  0  0  0
 14 21  1  0  0  0  0
 15 22  1  0  0  0  0
 16 23  1  0  0  0  0
 17 24  1  0  0  0  0
M  END
