 xtb: 6.7.1 (edcfbbe)
          04062518003D

 24 24  0     0  0            999 V2000
   -2.2671   -1.1273   -0.1104 C   0  0  0  0  0  0  0  0  0  0  0  0
   -0.8896   -0.5674    0.2469 C   0  0  0  0  0  0  0  0  0  0  0  0
   -0.7455   -0.6143    1.3356 H   0  0  0  0  0  0  0  0  0  0  0  0
   -0.7426    0.8992   -0.1998 C   0  0  0  0  0  0  0  0  0  0  0  0
   -1.2007    1.0032   -1.1976 H   0  0  0  0  0  0  0  0  0  0  0  0
    0.7520    1.2705   -0.3198 C   0  0  0  0  0  0  0  0  0  0  0  0
    0.8616    2.2840    0.0934 H   0  0  0  0  0  0  0  0  0  0  0  0
    1.6280    0.3026    0.4930 C   0  0  0  0  0  0  0  0  0  0  0  0
    2.6831    0.5394    0.2904 H   0  0  0  0  0  0  0  0  0  0  0  0
    1.4057   -1.1413   -0.0104 C   0  0  0  0  0  0  0  0  0  0  0  0
    1.6687   -1.8316    0.8075 H   0  0  0  0  0  0  0  0  0  0  0  0
    0.0691   -1.3751   -0.4110 O   0  0  0  0  0  0  0  0  0  0  0  0
    2.2313   -1.4546   -1.0704 O   0  0  0  0  0  0  0  0  0  0  0  0
    1.3615    0.3362    1.8691 O   0  0  0  0  0  0  0  0  0  0  0  0
    1.2228    1.2100   -1.6433 O   0  0  0  0  0  0  0  0  0  0  0  0
   -1.3389    1.7926    0.7047 O   0  0  0  0  0  0  0  0  0  0  0  0
   -3.2461   -0.3091    0.4876 O   0  0  0  0  0  0  0  0  0  0  0  0
   -2.3258   -2.1587    0.2533 H   0  0  0  0  0  0  0  0  0  0  0  0
   -2.3658   -1.1326   -1.2030 H   0  0  0  0  0  0  0  0  0  0  0  0
    2.0228   -0.8581   -1.8116 H   0  0  0  0  0  0  0  0  0  0  0  0
    1.5445    1.2209    2.2192 H   0  0  0  0  0  0  0  0  0  0  0  0
    0.8132    1.9092   -2.1729 H   0  0  0  0  0  0  0  0  0  0  0  0
   -2.2374    1.4748    0.8945 H   0  0  0  0  0  0  0  0  0  0  0  0
   -4.1238   -0.6762    0.3109 H   0  0  0  0  0  0  0  0  0  0  0  0
  1  2  1  0  0  0  0
  2  3  1  0  0  0  0
  2  4  1  0  0  0  0
  4  5  1  0  0  0  0
  4  6  1  0  0  0  0
  6  7  1  0  0  0  0
  6  8  1  0  0  0  0
  8  9  1  0  0  0  0
  8 10  1  0  0  0  0
 10 11  1  0  0  0  0
  2 12  1  0  0  0  0
 10 12  1  0  0  0  0
 10 13  1  0  0  0  0
  8 14  1  0  0  0  0
  6 15  1  0  0  0  0
  4 16  1  0  0  0  0
  1 17  1  0  0  0  0
  1 18  1  0  0  0  0
  1 19  1  0  0  0  0
 13 20  1  0  0  0  0
 14 21  1  0  0  0  0
 15 22  1  0  0  0  0
 16 23  1  0  0  0  0
 17 24  1  0  0  0  0
M  END
