 xtb: 6.7.1 (edcfbbe)
          04032521033D

 12 12  0     0  0            999 V2000
    2.1084    0.0245    0.0010 C   0  0  0  0  0  0  0  0  0  0  0  0
    0.6705   -0.0097   -0.0014 N   0  0  0  0  0  0  0  0  0  0  0  0
   -0.1236   -1.1176   -0.0003 C   0  0  0  0  0  0  0  0  0  0  0  0
   -1.4113   -0.6629    0.0003 C   0  0  0  0  0  0  0  0  0  0  0  0
   -1.4233    0.6976    0.0006 N   0  0  0  0  0  0  0  0  0  0  0  0
   -0.1625    1.0517   -0.0006 C   0  0  0  0  0  0  0  0  0  0  0  0
    2.4714    0.5210    0.9016 H   0  0  0  0  0  0  0  0  0  0  0  0
    2.4892   -0.9934   -0.0254 H   0  0  0  0  0  0  0  0  0  0  0  0
    2.4723    0.5678   -0.8714 H   0  0  0  0  0  0  0  0  0  0  0  0
    0.2765   -2.1098   -0.0007 H   0  0  0  0  0  0  0  0  0  0  0  0
   -2.3266   -1.2200    0.0012 H   0  0  0  0  0  0  0  0  0  0  0  0
    0.1799    2.0667   -0.0007 H   0  0  0  0  0  0  0  0  0  0  0  0
  1  2  1  0  0  0  0
  2  3  4  0  0  0  0
  3  4  2  0  0  0  0
  4  5  4  0  0  0  0
  2  6  4  0  0  0  0
  5  6  2  0  0  0  0
  1  7  1  0  0  0  0
  1  8  1  0  0  0  0
  1  9  1  0  0  0  0
  3 10  1  0  0  0  0
  4 11  1  0  0  0  0
  6 12  1  0  0  0  0
M  END
