 xtb: 6.7.1 (edcfbbe)
          04032520533D

 24 24  0     0  0            999 V2000
    2.3564   -0.6692    0.2165 C   0  0  0  0  0  0  0  0  0  0  0  0
    0.8573   -0.5068    0.4597 C   0  0  0  0  0  0  0  0  0  0  0  0
    0.6515   -0.8616    1.4778 H   0  0  0  0  0  0  0  0  0  0  0  0
    0.0344   -1.3647   -0.5014 C   0  0  0  0  0  0  0  0  0  0  0  0
   -1.4457   -1.2982   -0.1373 C   0  0  0  0  0  0  0  0  0  0  0  0
   -1.9341    0.1461   -0.1727 C   0  0  0  0  0  0  0  0  0  0  0  0
   -1.0937    1.0233    0.7522 C   0  0  0  0  0  0  0  0  0  0  0  0
    0.4007    0.9628    0.4075 C   0  0  0  0  0  0  0  0  0  0  0  0
    0.9426    1.4929    1.1998 H   0  0  0  0  0  0  0  0  0  0  0  0
    0.6971    1.6671   -0.9264 C   0  0  0  0  0  0  0  0  0  0  0  0
    2.6229   -0.4304   -0.8098 H   0  0  0  0  0  0  0  0  0  0  0  0
    2.9209   -0.0163    0.8785 H   0  0  0  0  0  0  0  0  0  0  0  0
    2.6556   -1.6971    0.4094 H   0  0  0  0  0  0  0  0  0  0  0  0
    0.1738   -1.0127   -1.5250 H   0  0  0  0  0  0  0  0  0  0  0  0
    0.3811   -2.3995   -0.4547 H   0  0  0  0  0  0  0  0  0  0  0  0
   -2.0297   -1.9058   -0.8317 H   0  0  0  0  0  0  0  0  0  0  0  0
   -1.5892   -1.7056    0.8666 H   0  0  0  0  0  0  0  0  0  0  0  0
   -1.8729    0.5179   -1.1971 H   0  0  0  0  0  0  0  0  0  0  0  0
   -2.9814    0.1934    0.1335 H   0  0  0  0  0  0  0  0  0  0  0  0
   -1.4390    2.0580    0.6972 H   0  0  0  0  0  0  0  0  0  0  0  0
   -1.2322    0.6824    1.7815 H   0  0  0  0  0  0  0  0  0  0  0  0
    1.2581    2.5830   -0.7595 H   0  0  0  0  0  0  0  0  0  0  0  0
   -0.2214    1.9330   -1.4420 H   0  0  0  0  0  0  0  0  0  0  0  0
    1.2803    1.0401   -1.5934 H   0  0  0  0  0  0  0  0  0  0  0  0
  1  2  1  0  0  0  0
  2  3  1  0  0  0  0
  2  4  1  0  0  0  0
  4  5  1  0  0  0  0
  5  6  1  0  0  0  0
  6  7  1  0  0  0  0
  2  8  1  0  0  0  0
  7  8  1  0  0  0  0
  8  9  1  0  0  0  0
  8 10  1  0  0  0  0
  1 11  1  0  0  0  0
  1 12  1  0  0  0  0
  1 13  1  0  0  0  0
  4 14  1  0  0  0  0
  4 15  1  0  0  0  0
  5 16  1  0  0  0  0
  5 17  1  0  0  0  0
  6 18  1  0  0  0  0
  6 19  1  0  0  0  0
  7 20  1  0  0  0  0
  7 21  1  0  0  0  0
 10 22  1  0  0  0  0
 10 23  1  0  0  0  0
 10 24  1  0  0  0  0
M  END
