 xtb: 6.7.1 (edcfbbe)
          04062518003D

 24 24  0     0  0            999 V2000
   -2.5246   -0.9846    0.3423 C   0  0  0  0  0  0  0  0  0  0  0  0
   -1.0978   -0.4845    0.6150 C   0  0  0  0  0  0  0  0  0  0  0  0
   -0.9378   -0.4272    1.7025 H   0  0  0  0  0  0  0  0  0  0  0  0
   -0.8367    0.9043    0.0021 C   0  0  0  0  0  0  0  0  0  0  0  0
   -1.0327    0.8566   -1.0778 H   0  0  0  0  0  0  0  0  0  0  0  0
    0.6346    1.2774    0.2203 C   0  0  0  0  0  0  0  0  0  0  0  0
    0.8023    1.3973    1.3027 H   0  0  0  0  0  0  0  0  0  0  0  0
    1.5604    0.1730   -0.3019 C   0  0  0  0  0  0  0  0  0  0  0  0
    1.4491    0.1187   -1.3968 H   0  0  0  0  0  0  0  0  0  0  0  0
    1.1509   -1.1802    0.3090 C   0  0  0  0  0  0  0  0  0  0  0  0
    1.3316   -1.1433    1.3952 H   0  0  0  0  0  0  0  0  0  0  0  0
   -0.2134   -1.4348    0.0462 O   0  0  0  0  0  0  0  0  0  0  0  0
    1.8840   -2.2424   -0.1628 O   0  0  0  0  0  0  0  0  0  0  0  0
    2.8965    0.4193    0.0441 O   0  0  0  0  0  0  0  0  0  0  0  0
    0.9742    2.4644   -0.4547 O   0  0  0  0  0  0  0  0  0  0  0  0
   -1.6081    1.9132    0.6082 O   0  0  0  0  0  0  0  0  0  0  0  0
   -2.8569   -0.9529   -1.0209 O   0  0  0  0  0  0  0  0  0  0  0  0
   -3.2395   -0.3386    0.8537 H   0  0  0  0  0  0  0  0  0  0  0  0
   -2.6109   -1.9997    0.7452 H   0  0  0  0  0  0  0  0  0  0  0  0
    1.7562   -2.3392   -1.1202 H   0  0  0  0  0  0  0  0  0  0  0  0
    3.1263    1.3133   -0.2549 H   0  0  0  0  0  0  0  0  0  0  0  0
    0.3564    3.1590   -0.1816 H   0  0  0  0  0  0  0  0  0  0  0  0
   -2.5215    1.8576    0.2954 H   0  0  0  0  0  0  0  0  0  0  0  0
   -2.2995   -1.5908   -1.4882 H   0  0  0  0  0  0  0  0  0  0  0  0
  1  2  1  0  0  0  0
  2  3  1  0  0  0  0
  2  4  1  0  0  0  0
  4  5  1  0  0  0  0
  4  6  1  0  0  0  0
  6  7  1  0  0  0  0
  6  8  1  0  0  0  0
  8  9  1  0  0  0  0
  8 10  1  0  0  0  0
 10 11  1  0  0  0  0
  2 12  1  0  0  0  0
 10 12  1  0  0  0  0
 10 13  1  0  0  0  0
  8 14  1  0  0  0  0
  6 15  1  0  0  0  0
  4 16  1  0  0  0  0
  1 17  1  0  0  0  0
  1 18  1  0  0  0  0
  1 19  1  0  0  0  0
 13 20  1  0  0  0  0
 14 21  1  0  0  0  0
 15 22  1  0  0  0  0
 16 23  1  0  0  0  0
 17 24  1  0  0  0  0
M  END
