 xtb: 6.7.1 (edcfbbe)
          04062518003D

 24 24  0     0  0            999 V2000
   -2.3233   -0.7789   -0.6834 C   0  0  0  0  0  0  0  0  0  0  0  0
   -1.0723   -0.5318    0.1618 C   0  0  0  0  0  0  0  0  0  0  0  0
   -1.2525   -0.9159    1.1785 H   0  0  0  0  0  0  0  0  0  0  0  0
   -0.7282    0.9762    0.2856 C   0  0  0  0  0  0  0  0  0  0  0  0
   -1.5362    1.5588   -0.1694 H   0  0  0  0  0  0  0  0  0  0  0  0
    0.5884    1.2632   -0.4621 C   0  0  0  0  0  0  0  0  0  0  0  0
    0.8651    2.3092   -0.2924 H   0  0  0  0  0  0  0  0  0  0  0  0
    1.7119    0.3707    0.1056 C   0  0  0  0  0  0  0  0  0  0  0  0
    2.5474    0.3855   -0.6057 H   0  0  0  0  0  0  0  0  0  0  0  0
    1.2132   -1.0922    0.2141 C   0  0  0  0  0  0  0  0  0  0  0  0
    1.0702   -1.3370    1.2881 H   0  0  0  0  0  0  0  0  0  0  0  0
   -0.0223   -1.2660   -0.4489 O   0  0  0  0  0  0  0  0  0  0  0  0
    2.1444   -1.9221   -0.3760 O   0  0  0  0  0  0  0  0  0  0  0  0
    2.0923    0.8803    1.3599 O   0  0  0  0  0  0  0  0  0  0  0  0
    0.4593    1.1119   -1.8500 O   0  0  0  0  0  0  0  0  0  0  0  0
   -0.6639    1.3938    1.6260 O   0  0  0  0  0  0  0  0  0  0  0  0
   -3.4343   -0.2660    0.0085 O   0  0  0  0  0  0  0  0  0  0  0  0
   -2.4161   -1.8610   -0.8412 H   0  0  0  0  0  0  0  0  0  0  0  0
   -2.1980   -0.2854   -1.6550 H   0  0  0  0  0  0  0  0  0  0  0  0
    1.7796   -2.8159   -0.4731 H   0  0  0  0  0  0  0  0  0  0  0  0
    2.9560    0.5291    1.6196 H   0  0  0  0  0  0  0  0  0  0  0  0
    0.3127    0.1726   -2.0461 H   0  0  0  0  0  0  0  0  0  0  0  0
    0.2400    1.2648    1.9615 H   0  0  0  0  0  0  0  0  0  0  0  0
   -4.2306   -0.3963   -0.5262 H   0  0  0  0  0  0  0  0  0  0  0  0
  1  2  1  0  0  0  0
  2  3  1  0  0  0  0
  2  4  1  0  0  0  0
  4  5  1  0  0  0  0
  4  6  1  0  0  0  0
  6  7  1  0  0  0  0
  6  8  1  0  0  0  0
  8  9  1  0  0  0  0
  8 10  1  0  0  0  0
 10 11  1  0  0  0  0
  2 12  1  0  0  0  0
 10 12  1  0  0  0  0
 10 13  1  0  0  0  0
  8 14  1  0  0  0  0
  6 15  1  0  0  0  0
  4 16  1  0  0  0  0
  1 17  1  0  0  0  0
  1 18  1  0  0  0  0
  1 19  1  0  0  0  0
 13 20  1  0  0  0  0
 14 21  1  0  0  0  0
 15 22  1  0  0  0  0
 16 23  1  0  0  0  0
 17 24  1  0  0  0  0
M  END
