 xtb: 6.7.1 (edcfbbe)
          04052516073D

 27 27  0     0  0            999 V2000
   -2.8537    0.6012   -0.4325 C   0  0  0  0  0  0  0  0  0  0  0  0
   -1.6196    0.5826    0.4812 C   0  0  0  0  0  0  0  0  0  0  0  0
   -1.9606    0.8011    1.4998 H   0  0  0  0  0  0  0  0  0  0  0  0
   -0.5752    1.6209    0.0580 C   0  0  0  0  0  0  0  0  0  0  0  0
    0.1702    1.2169   -1.2075 C   0  0  0  0  0  0  0  0  0  0  0  0
    0.8615   -0.1436   -1.0387 C   0  0  0  0  0  0  0  0  0  0  0  0
    1.2890   -0.4230   -2.0080 H   0  0  0  0  0  0  0  0  0  0  0  0
   -0.1878   -1.2007   -0.6754 C   0  0  0  0  0  0  0  0  0  0  0  0
   -1.0685   -0.8258    0.4830 C   0  0  0  0  0  0  0  0  0  0  0  0
   -1.3929   -1.6320    1.3369 O   0  0  0  0  0  0  0  0  0  0  0  0
    2.0138   -0.0487   -0.0569 C   0  0  0  0  0  0  0  0  0  0  0  0
    3.1455    0.5313   -0.4297 C   0  0  0  0  0  0  0  0  0  0  0  0
    1.8504   -0.6161    1.3191 C   0  0  0  0  0  0  0  0  0  0  0  0
   -3.5619   -0.1633   -0.1196 H   0  0  0  0  0  0  0  0  0  0  0  0
   -3.3393    1.5712   -0.3662 H   0  0  0  0  0  0  0  0  0  0  0  0
   -2.5808    0.4178   -1.4672 H   0  0  0  0  0  0  0  0  0  0  0  0
   -1.0771    2.5772   -0.0992 H   0  0  0  0  0  0  0  0  0  0  0  0
    0.1453    1.7570    0.8666 H   0  0  0  0  0  0  0  0  0  0  0  0
   -0.5228    1.1643   -2.0480 H   0  0  0  0  0  0  0  0  0  0  0  0
    0.9190    1.9750   -1.4392 H   0  0  0  0  0  0  0  0  0  0  0  0
   -0.8575   -1.3232   -1.5313 H   0  0  0  0  0  0  0  0  0  0  0  0
    0.2715   -2.1703   -0.4776 H   0  0  0  0  0  0  0  0  0  0  0  0
    3.9799    0.6360    0.2421 H   0  0  0  0  0  0  0  0  0  0  0  0
    3.2850    0.9234   -1.4231 H   0  0  0  0  0  0  0  0  0  0  0  0
    0.9371   -0.2611    1.7928 H   0  0  0  0  0  0  0  0  0  0  0  0
    1.7913   -1.7034    1.2800 H   0  0  0  0  0  0  0  0  0  0  0  0
    2.6966   -0.3435    1.9446 H   0  0  0  0  0  0  0  0  0  0  0  0
  1  2  1  0  0  0  0
  2  3  1  0  0  0  0
  2  4  1  0  0  0  0
  4  5  1  0  0  0  0
  5  6  1  0  0  0  0
  6  7  1  0  0  0  0
  6  8  1  0  0  0  0
  2  9  1  0  0  0  0
  8  9  1  0  0  0  0
  9 10  2  0  0  0  0
  6 11  1  0  0  0  0
 11 12  2  0  0  0  0
 11 13  1  0  0  0  0
  1 14  1  0  0  0  0
  1 15  1  0  0  0  0
  1 16  1  0  0  0  0
  4 17  1  0  0  0  0
  4 18  1  0  0  0  0
  5 19  1  0  0  0  0
  5 20  1  0  0  0  0
  8 21  1  0  0  0  0
  8 22  1  0  0  0  0
 12 23  1  0  0  0  0
 12 24  1  0  0  0  0
 13 25  1  0  0  0  0
 13 26  1  0  0  0  0
 13 27  1  0  0  0  0
M  END
