 xtb: 6.7.1 (edcfbbe)
          04062518003D

 24 24  0     0  0            999 V2000
   -1.7589   -1.0413   -0.6718 C   0  0  0  0  0  0  0  0  0  0  0  0
   -1.0922   -0.5173    0.6226 C   0  0  0  0  0  0  0  0  0  0  0  0
   -1.7805   -0.6704    1.4619 H   0  0  0  0  0  0  0  0  0  0  0  0
   -0.7425    0.9771    0.5571 C   0  0  0  0  0  0  0  0  0  0  0  0
   -1.6290    1.5266    0.2141 H   0  0  0  0  0  0  0  0  0  0  0  0
    0.4049    1.2297   -0.4316 C   0  0  0  0  0  0  0  0  0  0  0  0
    0.7351    2.2720   -0.2925 H   0  0  0  0  0  0  0  0  0  0  0  0
    1.6069    0.3362   -0.0662 C   0  0  0  0  0  0  0  0  0  0  0  0
    2.3112    0.3028   -0.9054 H   0  0  0  0  0  0  0  0  0  0  0  0
    1.2135   -1.1310    0.2188 C   0  0  0  0  0  0  0  0  0  0  0  0
    2.0015   -1.5535    0.8628 H   0  0  0  0  0  0  0  0  0  0  0  0
    0.0458   -1.2940    0.9847 O   0  0  0  0  0  0  0  0  0  0  0  0
    1.1595   -1.8095   -1.0006 O   0  0  0  0  0  0  0  0  0  0  0  0
    2.3153    0.8825    1.0155 O   0  0  0  0  0  0  0  0  0  0  0  0
   -0.0835    1.0359   -1.7319 O   0  0  0  0  0  0  0  0  0  0  0  0
   -0.3124    1.4631    1.8097 O   0  0  0  0  0  0  0  0  0  0  0  0
   -2.7493   -0.1736   -1.1686 O   0  0  0  0  0  0  0  0  0  0  0  0
   -2.2563   -1.9870   -0.4411 H   0  0  0  0  0  0  0  0  0  0  0  0
   -0.9879   -1.2171   -1.4242 H   0  0  0  0  0  0  0  0  0  0  0  0
    1.0790   -2.7627   -0.8459 H   0  0  0  0  0  0  0  0  0  0  0  0
    1.6811    1.0905    1.7241 H   0  0  0  0  0  0  0  0  0  0  0  0
    0.6102    1.2352   -2.3760 H   0  0  0  0  0  0  0  0  0  0  0  0
   -1.0190    1.3605    2.4630 H   0  0  0  0  0  0  0  0  0  0  0  0
   -2.3143    0.4927   -1.7208 H   0  0  0  0  0  0  0  0  0  0  0  0
  1  2  1  0  0  0  0
  2  3  1  0  0  0  0
  2  4  1  0  0  0  0
  4  5  1  0  0  0  0
  4  6  1  0  0  0  0
  6  7  1  0  0  0  0
  6  8  1  0  0  0  0
  8  9  1  0  0  0  0
  8 10  1  0  0  0  0
 10 11  1  0  0  0  0
  2 12  1  0  0  0  0
 10 12  1  0  0  0  0
 10 13  1  0  0  0  0
  8 14  1  0  0  0  0
  6 15  1  0  0  0  0
  4 16  1  0  0  0  0
  1 17  1  0  0  0  0
  1 18  1  0  0  0  0
  1 19  1  0  0  0  0
 13 20  1  0  0  0  0
 14 21  1  0  0  0  0
 15 22  1  0  0  0  0
 16 23  1  0  0  0  0
 17 24  1  0  0  0  0
M  END
