 xtb: 6.7.1 (edcfbbe)
          04062518003D

 24 24  0     0  0            999 V2000
   -1.8774   -0.5704   -0.8498 C   0  0  0  0  0  0  0  0  0  0  0  0
   -1.1837   -0.1145    0.4402 C   0  0  0  0  0  0  0  0  0  0  0  0
   -1.9309   -0.1045    1.2420 H   0  0  0  0  0  0  0  0  0  0  0  0
   -0.6010    1.3015    0.3109 C   0  0  0  0  0  0  0  0  0  0  0  0
   -1.3358    1.9201   -0.2185 H   0  0  0  0  0  0  0  0  0  0  0  0
    0.7026    1.3019   -0.5110 C   0  0  0  0  0  0  0  0  0  0  0  0
    1.1851    2.2874   -0.3870 H   0  0  0  0  0  0  0  0  0  0  0  0
    1.6790    0.2597    0.0681 C   0  0  0  0  0  0  0  0  0  0  0  0
    2.5226    0.1162   -0.6161 H   0  0  0  0  0  0  0  0  0  0  0  0
    1.0097   -1.1154    0.2536 C   0  0  0  0  0  0  0  0  0  0  0  0
    1.6393   -1.6981    0.9470 H   0  0  0  0  0  0  0  0  0  0  0  0
   -0.2238   -1.0476    0.9200 O   0  0  0  0  0  0  0  0  0  0  0  0
    0.9371   -1.7416   -0.9903 O   0  0  0  0  0  0  0  0  0  0  0  0
    2.2263    0.7159    1.2775 O   0  0  0  0  0  0  0  0  0  0  0  0
    0.3686    1.0905   -1.8560 O   0  0  0  0  0  0  0  0  0  0  0  0
   -0.3726    1.7889    1.6151 O   0  0  0  0  0  0  0  0  0  0  0  0
   -2.6246   -1.7330   -0.5621 O   0  0  0  0  0  0  0  0  0  0  0  0
   -1.1291   -0.7579   -1.6250 H   0  0  0  0  0  0  0  0  0  0  0  0
   -2.5386    0.2395   -1.1823 H   0  0  0  0  0  0  0  0  0  0  0  0
    0.5836   -2.6373   -0.8802 H   0  0  0  0  0  0  0  0  0  0  0  0
    1.4949    0.8937    1.8959 H   0  0  0  0  0  0  0  0  0  0  0  0
    1.1733    1.0605   -2.3932 H   0  0  0  0  0  0  0  0  0  0  0  0
   -0.3001    2.7541    1.6000 H   0  0  0  0  0  0  0  0  0  0  0  0
   -3.0734   -2.0246   -1.3680 H   0  0  0  0  0  0  0  0  0  0  0  0
  1  2  1  0  0  0  0
  2  3  1  0  0  0  0
  2  4  1  0  0  0  0
  4  5  1  0  0  0  0
  4  6  1  0  0  0  0
  6  7  1  0  0  0  0
  6  8  1  0  0  0  0
  8  9  1  0  0  0  0
  8 10  1  0  0  0  0
 10 11  1  0  0  0  0
  2 12  1  0  0  0  0
 10 12  1  0  0  0  0
 10 13  1  0  0  0  0
  8 14  1  0  0  0  0
  6 15  1  0  0  0  0
  4 16  1  0  0  0  0
  1 17  1  0  0  0  0
  1 18  1  0  0  0  0
  1 19  1  0  0  0  0
 13 20  1  0  0  0  0
 14 21  1  0  0  0  0
 15 22  1  0  0  0  0
 16 23  1  0  0  0  0
 17 24  1  0  0  0  0
M  END
