 xtb: 6.7.1 (edcfbbe)
          04062508313D

 24 24  0     0  0            999 V2000
   -2.9050   -1.0374    0.3736 C   0  0  0  0  0  0  0  0  0  0  0  0
   -1.7317   -0.7213   -0.3778 O   0  0  0  0  0  0  0  0  0  0  0  0
   -1.0336    0.3461    0.0041 C   0  0  0  0  0  0  0  0  0  0  0  0
   -1.3670    1.0363    0.9452 O   0  0  0  0  0  0  0  0  0  0  0  0
    0.1503    0.6337   -0.8972 C   0  0  0  0  0  0  0  0  0  0  0  0
    0.8273   -0.6301   -1.4541 C   0  0  0  0  0  0  0  0  0  0  0  0
    1.9888   -1.0821   -0.5603 C   0  0  0  0  0  0  0  0  0  0  0  0
    1.7029   -0.7279    0.8941 C   0  0  0  0  0  0  0  0  0  0  0  0
    1.7132    0.7928    1.0787 C   0  0  0  0  0  0  0  0  0  0  0  0
    1.1666    1.5106   -0.1630 C   0  0  0  0  0  0  0  0  0  0  0  0
   -2.6435   -1.2212    1.4167 H   0  0  0  0  0  0  0  0  0  0  0  0
   -3.3173   -1.9287   -0.0887 H   0  0  0  0  0  0  0  0  0  0  0  0
   -3.6119   -0.2080    0.3279 H   0  0  0  0  0  0  0  0  0  0  0  0
   -0.2790    1.2016   -1.7313 H   0  0  0  0  0  0  0  0  0  0  0  0
    0.0852   -1.4238   -1.5346 H   0  0  0  0  0  0  0  0  0  0  0  0
    1.2009   -0.4223   -2.4568 H   0  0  0  0  0  0  0  0  0  0  0  0
    2.1352   -2.1573   -0.6668 H   0  0  0  0  0  0  0  0  0  0  0  0
    2.9133   -0.5894   -0.8645 H   0  0  0  0  0  0  0  0  0  0  0  0
    0.7252   -1.1297    1.1725 H   0  0  0  0  0  0  0  0  0  0  0  0
    2.4427   -1.1849    1.5527 H   0  0  0  0  0  0  0  0  0  0  0  0
    1.1072    1.0536    1.9480 H   0  0  0  0  0  0  0  0  0  0  0  0
    2.7308    1.1363    1.2692 H   0  0  0  0  0  0  0  0  0  0  0  0
    0.6968    2.4489    0.1332 H   0  0  0  0  0  0  0  0  0  0  0  0
    1.9764    1.7393   -0.8555 H   0  0  0  0  0  0  0  0  0  0  0  0
  1  2  1  0  0  0  0
  2  3  1  0  0  0  0
  3  4  2  0  0  0  0
  3  5  1  0  0  0  0
  5  6  1  0  0  0  0
  6  7  1  0  0  0  0
  7  8  1  0  0  0  0
  8  9  1  0  0  0  0
  5 10  1  0  0  0  0
  9 10  1  0  0  0  0
  1 11  1  0  0  0  0
  1 12  1  0  0  0  0
  1 13  1  0  0  0  0
  5 14  1  0  0  0  0
  6 15  1  0  0  0  0
  6 16  1  0  0  0  0
  7 17  1  0  0  0  0
  7 18  1  0  0  0  0
  8 19  1  0  0  0  0
  8 20  1  0  0  0  0
  9 21  1  0  0  0  0
  9 22  1  0  0  0  0
 10 23  1  0  0  0  0
 10 24  1  0  0  0  0
M  END
