 xtb: 6.7.1 (edcfbbe)
          04032521143D

  6  5  0     0  0            999 V2000
    1.7216    0.2954   -0.0001 C   0  0  0  0  0  0  0  0  0  0  0  0
    0.6785   -0.5061    0.0001 C   0  0  0  0  0  0  0  0  0  0  0  0
   -0.9572    0.0808   -0.0000 Cl  0  0  0  0  0  0  0  0  0  0  0  0
    2.7146   -0.1155   -0.0001 H   0  0  0  0  0  0  0  0  0  0  0  0
    1.6249    1.3663    0.0003 H   0  0  0  0  0  0  0  0  0  0  0  0
    0.7300   -1.5819   -0.0001 H   0  0  0  0  0  0  0  0  0  0  0  0
  1  2  2  0  0  0  0
  2  3  1  0  0  0  0
  1  4  1  0  0  0  0
  1  5  1  0  0  0  0
  2  6  1  0  0  0  0
M  END
