 xtb: 6.7.1 (edcfbbe)
          04042513153D

 12 11  0     0  0            999 V2000
   -2.4132    0.0130   -0.0003 C   0  0  0  0  0  0  0  0  0  0  0  0
   -0.9870   -0.5224    0.0003 C   0  0  0  0  0  0  0  0  0  0  0  0
    0.0277    0.6307    0.0002 C   0  0  0  0  0  0  0  0  0  0  0  0
    1.3749    0.1391    0.0001 C   0  0  0  0  0  0  0  0  0  0  0  0
    2.4455   -0.2700   -0.0002 N   0  0  0  0  0  0  0  0  0  0  0  0
   -2.5944    0.6211   -0.8834 H   0  0  0  0  0  0  0  0  0  0  0  0
   -3.1217   -0.8109   -0.0000 H   0  0  0  0  0  0  0  0  0  0  0  0
   -2.5948    0.6220    0.8822 H   0  0  0  0  0  0  0  0  0  0  0  0
   -0.8250   -1.1450    0.8825 H   0  0  0  0  0  0  0  0  0  0  0  0
   -0.8245   -1.1455   -0.8814 H   0  0  0  0  0  0  0  0  0  0  0  0
   -0.1099    1.2540    0.8874 H   0  0  0  0  0  0  0  0  0  0  0  0
   -0.1100    1.2540   -0.8871 H   0  0  0  0  0  0  0  0  0  0  0  0
  1  2  1  0  0  0  0
  2  3  1  0  0  0  0
  3  4  1  0  0  0  0
  4  5  3  0  0  0  0
  1  6  1  0  0  0  0
  1  7  1  0  0  0  0
  1  8  1  0  0  0  0
  2  9  1  0  0  0  0
  2 10  1  0  0  0  0
  3 11  1  0  0  0  0
  3 12  1  0  0  0  0
M  END
