 xtb: 6.7.1 (edcfbbe)
          04052516073D

 27 27  0     0  0            999 V2000
   -2.6577    0.9106    0.9375 C   0  0  0  0  0  0  0  0  0  0  0  0
   -1.2850    0.6170    0.3390 C   0  0  0  0  0  0  0  0  0  0  0  0
   -0.5137    1.0058    1.0157 H   0  0  0  0  0  0  0  0  0  0  0  0
   -1.0864    1.2595   -1.0344 C   0  0  0  0  0  0  0  0  0  0  0  0
    0.3711    1.1519   -1.4925 C   0  0  0  0  0  0  0  0  0  0  0  0
    1.0513   -0.1529   -1.0177 C   0  0  0  0  0  0  0  0  0  0  0  0
    1.7187   -0.4955   -1.8170 H   0  0  0  0  0  0  0  0  0  0  0  0
   -0.0126   -1.2363   -0.8211 C   0  0  0  0  0  0  0  0  0  0  0  0
   -1.0344   -0.8684    0.2200 C   0  0  0  0  0  0  0  0  0  0  0  0
   -1.6225   -1.7020    0.8843 O   0  0  0  0  0  0  0  0  0  0  0  0
    1.9374    0.0496    0.2033 C   0  0  0  0  0  0  0  0  0  0  0  0
    2.8255    1.0327    0.2512 C   0  0  0  0  0  0  0  0  0  0  0  0
    1.8631   -0.9520    1.3170 C   0  0  0  0  0  0  0  0  0  0  0  0
   -3.4418    0.5975    0.2513 H   0  0  0  0  0  0  0  0  0  0  0  0
   -2.7841    0.3610    1.8673 H   0  0  0  0  0  0  0  0  0  0  0  0
   -2.7678    1.9729    1.1357 H   0  0  0  0  0  0  0  0  0  0  0  0
   -1.7525    0.7710   -1.7485 H   0  0  0  0  0  0  0  0  0  0  0  0
   -1.3761    2.3095   -0.9866 H   0  0  0  0  0  0  0  0  0  0  0  0
    0.4036    1.2069   -2.5809 H   0  0  0  0  0  0  0  0  0  0  0  0
    0.9255    2.0047   -1.1052 H   0  0  0  0  0  0  0  0  0  0  0  0
   -0.5630   -1.3577   -1.7586 H   0  0  0  0  0  0  0  0  0  0  0  0
    0.4210   -2.2071   -0.5808 H   0  0  0  0  0  0  0  0  0  0  0  0
    3.4762    1.1614    1.0990 H   0  0  0  0  0  0  0  0  0  0  0  0
    2.9555    1.7418   -0.5479 H   0  0  0  0  0  0  0  0  0  0  0  0
    2.5104   -0.6518    2.1367 H   0  0  0  0  0  0  0  0  0  0  0  0
    0.8506   -1.0635    1.7002 H   0  0  0  0  0  0  0  0  0  0  0  0
    2.1917   -1.9290    0.9640 H   0  0  0  0  0  0  0  0  0  0  0  0
  1  2  1  0  0  0  0
  2  3  1  0  0  0  0
  2  4  1  0  0  0  0
  4  5  1  0  0  0  0
  5  6  1  0  0  0  0
  6  7  1  0  0  0  0
  6  8  1  0  0  0  0
  2  9  1  0  0  0  0
  8  9  1  0  0  0  0
  9 10  2  0  0  0  0
  6 11  1  0  0  0  0
 11 12  2  0  0  0  0
 11 13  1  0  0  0  0
  1 14  1  0  0  0  0
  1 15  1  0  0  0  0
  1 16  1  0  0  0  0
  4 17  1  0  0  0  0
  4 18  1  0  0  0  0
  5 19  1  0  0  0  0
  5 20  1  0  0  0  0
  8 21  1  0  0  0  0
  8 22  1  0  0  0  0
 12 23  1  0  0  0  0
 12 24  1  0  0  0  0
 13 25  1  0  0  0  0
 13 26  1  0  0  0  0
 13 27  1  0  0  0  0
M  END
