 xtb: 6.7.1 (edcfbbe)
          04062511443D

 31 31  0     0  0            999 V2000
    3.5408    0.5200    0.0123 C   0  0  0  0  0  0  0  0  0  0  0  0
    2.2001    0.0656   -0.5615 C   0  0  0  0  0  0  0  0  0  0  0  0
    2.3856   -0.4007   -1.5347 H   0  0  0  0  0  0  0  0  0  0  0  0
    1.2422    1.2533   -0.7592 C   0  0  0  0  0  0  0  0  0  0  0  0
    0.2709    1.3714    0.4101 C   0  0  0  0  0  0  0  0  0  0  0  0
   -0.7034    0.1825    0.4491 C   0  0  0  0  0  0  0  0  0  0  0  0
   -1.0812    0.0804    1.4736 H   0  0  0  0  0  0  0  0  0  0  0  0
    0.0594   -1.1182    0.0950 C   0  0  0  0  0  0  0  0  0  0  0  0
   -0.0831   -1.3475   -0.9677 H   0  0  0  0  0  0  0  0  0  0  0  0
    1.5604   -0.9778    0.3613 C   0  0  0  0  0  0  0  0  0  0  0  0
   -0.4614   -2.2530    0.7652 O   0  0  0  0  0  0  0  0  0  0  0  0
   -1.9307    0.3694   -0.4689 C   0  0  0  0  0  0  0  0  0  0  0  0
   -2.9050   -0.7991   -0.3087 C   0  0  0  0  0  0  0  0  0  0  0  0
   -2.6882    1.6690   -0.1858 C   0  0  0  0  0  0  0  0  0  0  0  0
    3.3928    1.0508    0.9501 H   0  0  0  0  0  0  0  0  0  0  0  0
    4.1840   -0.3368    0.1993 H   0  0  0  0  0  0  0  0  0  0  0  0
    4.0478    1.1846   -0.6831 H   0  0  0  0  0  0  0  0  0  0  0  0
    1.8173    2.1751   -0.8571 H   0  0  0  0  0  0  0  0  0  0  0  0
    0.6717    1.1245   -1.6800 H   0  0  0  0  0  0  0  0  0  0  0  0
    0.8391    1.4096    1.3407 H   0  0  0  0  0  0  0  0  0  0  0  0
   -0.2821    2.3053    0.3403 H   0  0  0  0  0  0  0  0  0  0  0  0
    1.7134   -0.6984    1.4059 H   0  0  0  0  0  0  0  0  0  0  0  0
    2.0321   -1.9506    0.2073 H   0  0  0  0  0  0  0  0  0  0  0  0
   -0.3054   -2.1515    1.7143 H   0  0  0  0  0  0  0  0  0  0  0  0
   -1.5834    0.3901   -1.5080 H   0  0  0  0  0  0  0  0  0  0  0  0
   -3.3429   -0.7849    0.6873 H   0  0  0  0  0  0  0  0  0  0  0  0
   -2.4085   -1.7548   -0.4457 H   0  0  0  0  0  0  0  0  0  0  0  0
   -3.7089   -0.7212   -1.0374 H   0  0  0  0  0  0  0  0  0  0  0  0
   -3.6414    1.6554   -0.7092 H   0  0  0  0  0  0  0  0  0  0  0  0
   -2.1402    2.5431   -0.5255 H   0  0  0  0  0  0  0  0  0  0  0  0
   -2.8858    1.7702    0.8792 H   0  0  0  0  0  0  0  0  0  0  0  0
  1  2  1  0  0  0  0
  2  3  1  0  0  0  0
  2  4  1  0  0  0  0
  4  5  1  0  0  0  0
  5  6  1  0  0  0  0
  6  7  1  0  0  0  0
  6  8  1  0  0  0  0
  8  9  1  0  0  0  0
  2 10  1  0  0  0  0
  8 10  1  0  0  0  0
  8 11  1  0  0  0  0
  6 12  1  0  0  0  0
 12 13  1  0  0  0  0
 12 14  1  0  0  0  0
  1 15  1  0  0  0  0
  1 16  1  0  0  0  0
  1 17  1  0  0  0  0
  4 18  1  0  0  0  0
  4 19  1  0  0  0  0
  5 20  1  0  0  0  0
  5 21  1  0  0  0  0
 10 22  1  0  0  0  0
 10 23  1  0  0  0  0
 11 24  1  0  0  0  0
 12 25  1  0  0  0  0
 13 26  1  0  0  0  0
 13 27  1  0  0  0  0
 13 28  1  0  0  0  0
 14 29  1  0  0  0  0
 14 30  1  0  0  0  0
 14 31  1  0  0  0  0
M  END
