 xtb: 6.7.1 (edcfbbe)
          04032521103D

 14 14  0     0  0            999 V2000
    0.8666   -1.8248   -0.0014 C   0  0  0  0  0  0  0  0  0  0  0  0
    1.8808   -0.8918    0.0069 C   0  0  0  0  0  0  0  0  0  0  0  0
    1.5912    0.4784    0.0109 C   0  0  0  0  0  0  0  0  0  0  0  0
    0.2487    0.8759    0.0092 C   0  0  0  0  0  0  0  0  0  0  0  0
   -0.7448   -0.0799    0.0001 C   0  0  0  0  0  0  0  0  0  0  0  0
   -0.4647   -1.4344   -0.0044 C   0  0  0  0  0  0  0  0  0  0  0  0
   -2.4122    0.4428   -0.0007 Cl  0  0  0  0  0  0  0  0  0  0  0  0
    2.5888    1.4078   -0.0438 N   0  0  0  0  0  0  0  0  0  0  0  0
    1.1065   -2.8768   -0.0029 H   0  0  0  0  0  0  0  0  0  0  0  0
    2.9110   -1.2128    0.0079 H   0  0  0  0  0  0  0  0  0  0  0  0
   -0.0063    1.9238    0.0119 H   0  0  0  0  0  0  0  0  0  0  0  0
   -1.2609   -2.1600   -0.0085 H   0  0  0  0  0  0  0  0  0  0  0  0
    2.3533    2.3588    0.1801 H   0  0  0  0  0  0  0  0  0  0  0  0
    3.5185    1.1059    0.1899 H   0  0  0  0  0  0  0  0  0  0  0  0
  1  2  4  0  0  0  0
  2  3  4  0  0  0  0
  3  4  4  0  0  0  0
  4  5  4  0  0  0  0
  1  6  4  0  0  0  0
  5  6  4  0  0  0  0
  5  7  1  0  0  0  0
  3  8  4  0  0  0  0
  1  9  1  0  0  0  0
  2 10  1  0  0  0  0
  4 11  1  0  0  0  0
  6 12  1  0  0  0  0
  8 13  1  0  0  0  0
  8 14  1  0  0  0  0
M  END
