 xtb: 6.7.1 (edcfbbe)
          04062518003D

 24 24  0     0  0            999 V2000
   -2.3560   -0.7646    0.7185 C   0  0  0  0  0  0  0  0  0  0  0  0
   -0.8893   -0.3119    0.7487 C   0  0  0  0  0  0  0  0  0  0  0  0
   -0.6508    0.0427    1.7619 H   0  0  0  0  0  0  0  0  0  0  0  0
   -0.6153    0.8294   -0.2330 C   0  0  0  0  0  0  0  0  0  0  0  0
   -0.7291    0.4591   -1.2613 H   0  0  0  0  0  0  0  0  0  0  0  0
    0.8325    1.3108   -0.0424 C   0  0  0  0  0  0  0  0  0  0  0  0
    0.8419    1.9713    0.8387 H   0  0  0  0  0  0  0  0  0  0  0  0
    1.7799    0.1364    0.2861 C   0  0  0  0  0  0  0  0  0  0  0  0
    2.7026    0.2593   -0.2998 H   0  0  0  0  0  0  0  0  0  0  0  0
    1.1669   -1.2072   -0.1390 C   0  0  0  0  0  0  0  0  0  0  0  0
    1.8005   -2.0335    0.2259 H   0  0  0  0  0  0  0  0  0  0  0  0
   -0.0876   -1.4522    0.4458 O   0  0  0  0  0  0  0  0  0  0  0  0
    1.1172   -1.2136   -1.5312 O   0  0  0  0  0  0  0  0  0  0  0  0
    2.0399    0.1798    1.6654 O   0  0  0  0  0  0  0  0  0  0  0  0
    1.1979    2.0112   -1.2027 O   0  0  0  0  0  0  0  0  0  0  0  0
   -1.5247    1.8675    0.0287 O   0  0  0  0  0  0  0  0  0  0  0  0
   -2.7128   -1.3657   -0.4982 O   0  0  0  0  0  0  0  0  0  0  0  0
   -2.9906    0.1141    0.8360 H   0  0  0  0  0  0  0  0  0  0  0  0
   -2.5237   -1.4562    1.5529 H   0  0  0  0  0  0  0  0  0  0  0  0
    0.8411   -2.0836   -1.8570 H   0  0  0  0  0  0  0  0  0  0  0  0
    2.6820   -0.5025    1.9109 H   0  0  0  0  0  0  0  0  0  0  0  0
    2.0476    2.4554   -1.0713 H   0  0  0  0  0  0  0  0  0  0  0  0
   -1.3908    2.5649   -0.6296 H   0  0  0  0  0  0  0  0  0  0  0  0
   -2.1393   -2.1354   -0.6248 H   0  0  0  0  0  0  0  0  0  0  0  0
  1  2  1  0  0  0  0
  2  3  1  0  0  0  0
  2  4  1  0  0  0  0
  4  5  1  0  0  0  0
  4  6  1  0  0  0  0
  6  7  1  0  0  0  0
  6  8  1  0  0  0  0
  8  9  1  0  0  0  0
  8 10  1  0  0  0  0
 10 11  1  0  0  0  0
  2 12  1  0  0  0  0
 10 12  1  0  0  0  0
 10 13  1  0  0  0  0
  8 14  1  0  0  0  0
  6 15  1  0  0  0  0
  4 16  1  0  0  0  0
  1 17  1  0  0  0  0
  1 18  1  0  0  0  0
  1 19  1  0  0  0  0
 13 20  1  0  0  0  0
 14 21  1  0  0  0  0
 15 22  1  0  0  0  0
 16 23  1  0  0  0  0
 17 24  1  0  0  0  0
M  END
