 xtb: 6.7.1 (edcfbbe)
          04032522143D

 12 11  0     0  0            999 V2000
   -1.8812   -0.5327    0.2985 C   0  0  0  0  0  0  0  0  0  0  0  0
   -0.9918    0.3625   -0.5425 C   0  0  0  0  0  0  0  0  0  0  0  0
    0.6711    0.6033    0.1806 S   0  0  0  0  0  0  0  0  0  0  0  0
    1.4076   -1.0282   -0.1361 C   0  0  0  0  0  0  0  0  0  0  0  0
   -1.9569   -0.1427    1.3107 H   0  0  0  0  0  0  0  0  0  0  0  0
   -2.8764   -0.5720   -0.1381 H   0  0  0  0  0  0  0  0  0  0  0  0
   -1.4851   -1.5443    0.3436 H   0  0  0  0  0  0  0  0  0  0  0  0
   -1.4025    1.3692   -0.6086 H   0  0  0  0  0  0  0  0  0  0  0  0
   -0.8510   -0.0337   -1.5479 H   0  0  0  0  0  0  0  0  0  0  0  0
    0.9058   -1.7814    0.4627 H   0  0  0  0  0  0  0  0  0  0  0  0
    2.4489   -0.9541    0.1572 H   0  0  0  0  0  0  0  0  0  0  0  0
    1.3304   -1.2535   -1.1953 H   0  0  0  0  0  0  0  0  0  0  0  0
  1  2  1  0  0  0  0
  2  3  1  0  0  0  0
  3  4  1  0  0  0  0
  1  5  1  0  0  0  0
  1  6  1  0  0  0  0
  1  7  1  0  0  0  0
  2  8  1  0  0  0  0
  2  9  1  0  0  0  0
  4 10  1  0  0  0  0
  4 11  1  0  0  0  0
  4 12  1  0  0  0  0
M  END
