 xtb: 6.7.1 (edcfbbe)
          04032521303D

 19 19  0     0  0            999 V2000
   -1.8960   -0.0002    0.2790 C   0  0  0  0  0  0  0  0  0  0  0  0
   -1.1873   -1.2536   -0.2270 C   0  0  0  0  0  0  0  0  0  0  0  0
    0.2762   -1.2529    0.2052 C   0  0  0  0  0  0  0  0  0  0  0  0
    0.9866    0.0001   -0.3139 C   0  0  0  0  0  0  0  0  0  0  0  0
    0.2759    1.2530    0.2053 C   0  0  0  0  0  0  0  0  0  0  0  0
   -1.1876    1.2535   -0.2270 C   0  0  0  0  0  0  0  0  0  0  0  0
    2.3664    0.0000    0.0081 O   0  0  0  0  0  0  0  0  0  0  0  0
   -1.8966   -0.0002    1.3712 H   0  0  0  0  0  0  0  0  0  0  0  0
   -2.9341   -0.0002   -0.0571 H   0  0  0  0  0  0  0  0  0  0  0  0
   -1.6831   -2.1453    0.1601 H   0  0  0  0  0  0  0  0  0  0  0  0
   -1.2409   -1.2854   -1.3173 H   0  0  0  0  0  0  0  0  0  0  0  0
    0.3345   -1.2687    1.2967 H   0  0  0  0  0  0  0  0  0  0  0  0
    0.7877   -2.1395   -0.1742 H   0  0  0  0  0  0  0  0  0  0  0  0
    0.9676    0.0003   -1.4103 H   0  0  0  0  0  0  0  0  0  0  0  0
    0.3344    1.2690    1.2967 H   0  0  0  0  0  0  0  0  0  0  0  0
    0.7872    2.1398   -0.1744 H   0  0  0  0  0  0  0  0  0  0  0  0
   -1.6837    2.1450    0.1602 H   0  0  0  0  0  0  0  0  0  0  0  0
   -1.2412    1.2853   -1.3173 H   0  0  0  0  0  0  0  0  0  0  0  0
    2.4618   -0.0002    0.9709 H   0  0  0  0  0  0  0  0  0  0  0  0
  1  2  1  0  0  0  0
  2  3  1  0  0  0  0
  3  4  1  0  0  0  0
  4  5  1  0  0  0  0
  1  6  1  0  0  0  0
  5  6  1  0  0  0  0
  4  7  1  0  0  0  0
  1  8  1  0  0  0  0
  1  9  1  0  0  0  0
  2 10  1  0  0  0  0
  2 11  1  0  0  0  0
  3 12  1  0  0  0  0
  3 13  1  0  0  0  0
  4 14  1  0  0  0  0
  5 15  1  0  0  0  0
  5 16  1  0  0  0  0
  6 17  1  0  0  0  0
  6 18  1  0  0  0  0
  7 19  1  0  0  0  0
M  END
