 xtb: 6.7.1 (edcfbbe)
          04062518003D

 24 24  0     0  0            999 V2000
   -2.3845   -1.1757   -0.2731 C   0  0  0  0  0  0  0  0  0  0  0  0
   -1.0642   -0.6094    0.2615 C   0  0  0  0  0  0  0  0  0  0  0  0
   -1.1073   -0.5540    1.3612 H   0  0  0  0  0  0  0  0  0  0  0  0
   -0.7783    0.8032   -0.2795 C   0  0  0  0  0  0  0  0  0  0  0  0
   -0.8002    0.7613   -1.3834 H   0  0  0  0  0  0  0  0  0  0  0  0
    0.6222    1.2374    0.1709 C   0  0  0  0  0  0  0  0  0  0  0  0
    0.6147    1.3575    1.2612 H   0  0  0  0  0  0  0  0  0  0  0  0
    1.6753    0.1777   -0.1984 C   0  0  0  0  0  0  0  0  0  0  0  0
    1.7812    0.1179   -1.2935 H   0  0  0  0  0  0  0  0  0  0  0  0
    1.2401   -1.2079    0.2946 C   0  0  0  0  0  0  0  0  0  0  0  0
    1.2677   -1.2037    1.4037 H   0  0  0  0  0  0  0  0  0  0  0  0
   -0.0653   -1.5220   -0.1443 O   0  0  0  0  0  0  0  0  0  0  0  0
    2.0907   -2.1528   -0.2328 O   0  0  0  0  0  0  0  0  0  0  0  0
    2.9083    0.4856    0.3954 O   0  0  0  0  0  0  0  0  0  0  0  0
    1.0070    2.4916   -0.3325 O   0  0  0  0  0  0  0  0  0  0  0  0
   -1.6998    1.7515    0.1904 O   0  0  0  0  0  0  0  0  0  0  0  0
   -3.4517   -0.3853    0.1956 O   0  0  0  0  0  0  0  0  0  0  0  0
   -2.4679   -2.2103    0.0766 H   0  0  0  0  0  0  0  0  0  0  0  0
   -2.3414   -1.1769   -1.3691 H   0  0  0  0  0  0  0  0  0  0  0  0
    1.7745   -3.0425   -0.0072 H   0  0  0  0  0  0  0  0  0  0  0  0
    3.0840    1.4298    0.2473 H   0  0  0  0  0  0  0  0  0  0  0  0
    0.7587    2.5665   -1.2652 H   0  0  0  0  0  0  0  0  0  0  0  0
   -2.5850    1.3448    0.2096 H   0  0  0  0  0  0  0  0  0  0  0  0
   -4.2912   -0.7698   -0.0952 H   0  0  0  0  0  0  0  0  0  0  0  0
  1  2  1  0  0  0  0
  2  3  1  0  0  0  0
  2  4  1  0  0  0  0
  4  5  1  0  0  0  0
  4  6  1  0  0  0  0
  6  7  1  0  0  0  0
  6  8  1  0  0  0  0
  8  9  1  0  0  0  0
  8 10  1  0  0  0  0
 10 11  1  0  0  0  0
  2 12  1  0  0  0  0
 10 12  1  0  0  0  0
 10 13  1  0  0  0  0
  8 14  1  0  0  0  0
  6 15  1  0  0  0  0
  4 16  1  0  0  0  0
  1 17  1  0  0  0  0
  1 18  1  0  0  0  0
  1 19  1  0  0  0  0
 13 20  1  0  0  0  0
 14 21  1  0  0  0  0
 15 22  1  0  0  0  0
 16 23  1  0  0  0  0
 17 24  1  0  0  0  0
M  END
