 xtb: 6.7.1 (edcfbbe)
          04052508533D

 22 22  0     0  0            999 V2000
    3.3641   -0.0415    0.1588 C   0  0  0  0  0  0  0  0  0  0  0  0
    1.9429   -0.2809    0.2852 N   0  0  0  0  0  0  0  0  0  0  0  0
    1.5843   -1.4009    1.1233 C   0  0  0  0  0  0  0  0  0  0  0  0
    1.0643    0.4995   -0.3538 C   0  0  0  0  0  0  0  0  0  0  0  0
    1.4079    1.4421   -1.0752 O   0  0  0  0  0  0  0  0  0  0  0  0
   -0.3899    0.1904   -0.1635 C   0  0  0  0  0  0  0  0  0  0  0  0
   -1.0648   -0.5763   -1.1056 C   0  0  0  0  0  0  0  0  0  0  0  0
   -2.4237   -0.8025   -0.9695 C   0  0  0  0  0  0  0  0  0  0  0  0
   -3.1153   -0.2582    0.0998 C   0  0  0  0  0  0  0  0  0  0  0  0
   -2.4473    0.5166    1.0337 C   0  0  0  0  0  0  0  0  0  0  0  0
   -1.0880    0.7432    0.9040 C   0  0  0  0  0  0  0  0  0  0  0  0
    3.5101    0.8225   -0.4863 H   0  0  0  0  0  0  0  0  0  0  0  0
    3.8519   -0.9119   -0.2810 H   0  0  0  0  0  0  0  0  0  0  0  0
    3.7968    0.1570    1.1397 H   0  0  0  0  0  0  0  0  0  0  0  0
    2.0461   -2.3096    0.7339 H   0  0  0  0  0  0  0  0  0  0  0  0
    0.5062   -1.5287    1.1452 H   0  0  0  0  0  0  0  0  0  0  0  0
    1.9477   -1.2310    2.1382 H   0  0  0  0  0  0  0  0  0  0  0  0
   -0.5216   -0.9906   -1.9420 H   0  0  0  0  0  0  0  0  0  0  0  0
   -2.9419   -1.4021   -1.7020 H   0  0  0  0  0  0  0  0  0  0  0  0
   -4.1751   -0.4335    0.2027 H   0  0  0  0  0  0  0  0  0  0  0  0
   -2.9847    0.9475    1.8644 H   0  0  0  0  0  0  0  0  0  0  0  0
   -0.5637    1.3515    1.6260 H   0  0  0  0  0  0  0  0  0  0  0  0
  1  2  1  0  0  0  0
  2  3  1  0  0  0  0
  2  4  4  0  0  0  0
  4  5  2  0  0  0  0
  4  6  1  0  0  0  0
  6  7  4  0  0  0  0
  7  8  4  0  0  0  0
  8  9  4  0  0  0  0
  9 10  4  0  0  0  0
  6 11  4  0  0  0  0
 10 11  4  0  0  0  0
  1 12  1  0  0  0  0
  1 13  1  0  0  0  0
  1 14  1  0  0  0  0
  3 15  1  0  0  0  0
  3 16  1  0  0  0  0
  3 17  1  0  0  0  0
  7 18  1  0  0  0  0
  8 19  1  0  0  0  0
  9 20  1  0  0  0  0
 10 21  1  0  0  0  0
 11 22  1  0  0  0  0
M  END
