 xtb: 6.7.1 (edcfbbe)
          04032521143D

 14 14  0     0  0            999 V2000
   -1.0485    0.7707   -0.0705 C   0  0  0  0  0  0  0  0  0  0  0  0
   -1.0501   -0.7685   -0.0717 C   0  0  0  0  0  0  0  0  0  0  0  0
    0.4239   -1.1436    0.1980 C   0  0  0  0  0  0  0  0  0  0  0  0
    1.2283   -0.0015   -0.2152 N   0  0  0  0  0  0  0  0  0  0  0  0
    0.4267    1.1428    0.1971 C   0  0  0  0  0  0  0  0  0  0  0  0
   -1.7035    1.1821    0.6943 H   0  0  0  0  0  0  0  0  0  0  0  0
   -1.3684    1.1602   -1.0370 H   0  0  0  0  0  0  0  0  0  0  0  0
   -1.7074   -1.1801    0.6910 H   0  0  0  0  0  0  0  0  0  0  0  0
   -1.3687   -1.1556   -1.0396 H   0  0  0  0  0  0  0  0  0  0  0  0
    0.5833   -1.2840    1.2711 H   0  0  0  0  0  0  0  0  0  0  0  0
    0.7373   -2.0478   -0.3212 H   0  0  0  0  0  0  0  0  0  0  0  0
    1.3002   -0.0021   -1.2292 H   0  0  0  0  0  0  0  0  0  0  0  0
    0.5875    1.2845    1.2698 H   0  0  0  0  0  0  0  0  0  0  0  0
    0.7416    2.0456   -0.3238 H   0  0  0  0  0  0  0  0  0  0  0  0
  1  2  1  0  0  0  0
  2  3  1  0  0  0  0
  3  4  1  0  0  0  0
  1  5  1  0  0  0  0
  4  5  1  0  0  0  0
  1  6  1  0  0  0  0
  1  7  1  0  0  0  0
  2  8  1  0  0  0  0
  2  9  1  0  0  0  0
  3 10  1  0  0  0  0
  3 11  1  0  0  0  0
  4 12  1  0  0  0  0
  5 13  1  0  0  0  0
  5 14  1  0  0  0  0
M  END
