 xtb: 6.7.1 (edcfbbe)
          04062518003D

 24 24  0     0  0            999 V2000
   -2.2143   -1.2261    0.1361 C   0  0  0  0  0  0  0  0  0  0  0  0
   -0.8642   -0.5698    0.4739 C   0  0  0  0  0  0  0  0  0  0  0  0
   -0.8602   -0.2314    1.5225 H   0  0  0  0  0  0  0  0  0  0  0  0
   -0.5828    0.6451   -0.4180 C   0  0  0  0  0  0  0  0  0  0  0  0
   -0.5094    0.3133   -1.4658 H   0  0  0  0  0  0  0  0  0  0  0  0
    0.7589    1.2737   -0.0104 C   0  0  0  0  0  0  0  0  0  0  0  0
    0.5775    1.8729    0.8963 H   0  0  0  0  0  0  0  0  0  0  0  0
    1.7983    0.2040    0.3615 C   0  0  0  0  0  0  0  0  0  0  0  0
    2.7364    0.4826   -0.1357 H   0  0  0  0  0  0  0  0  0  0  0  0
    1.3840   -1.1831   -0.1583 C   0  0  0  0  0  0  0  0  0  0  0  0
    2.0732   -1.9425    0.2450 H   0  0  0  0  0  0  0  0  0  0  0  0
    0.1247   -1.5846    0.3214 O   0  0  0  0  0  0  0  0  0  0  0  0
    1.4375   -1.1642   -1.5491 O   0  0  0  0  0  0  0  0  0  0  0  0
    1.9264    0.1958    1.7602 O   0  0  0  0  0  0  0  0  0  0  0  0
    1.2928    2.0781   -1.0291 O   0  0  0  0  0  0  0  0  0  0  0  0
   -1.5650    1.6440   -0.2851 O   0  0  0  0  0  0  0  0  0  0  0  0
   -3.3148   -0.4071    0.4464 O   0  0  0  0  0  0  0  0  0  0  0  0
   -2.2636   -2.1885    0.6555 H   0  0  0  0  0  0  0  0  0  0  0  0
   -2.2640   -1.4112   -0.9396 H   0  0  0  0  0  0  0  0  0  0  0  0
    1.2896   -2.0567   -1.8997 H   0  0  0  0  0  0  0  0  0  0  0  0
    2.6935   -0.3330    2.0241 H   0  0  0  0  0  0  0  0  0  0  0  0
    0.6265    2.7352   -1.2798 H   0  0  0  0  0  0  0  0  0  0  0  0
   -2.4449    1.2256   -0.2948 H   0  0  0  0  0  0  0  0  0  0  0  0
   -3.4284   -0.3605    1.4064 H   0  0  0  0  0  0  0  0  0  0  0  0
  1  2  1  0  0  0  0
  2  3  1  0  0  0  0
  2  4  1  0  0  0  0
  4  5  1  0  0  0  0
  4  6  1  0  0  0  0
  6  7  1  0  0  0  0
  6  8  1  0  0  0  0
  8  9  1  0  0  0  0
  8 10  1  0  0  0  0
 10 11  1  0  0  0  0
  2 12  1  0  0  0  0
 10 12  1  0  0  0  0
 10 13  1  0  0  0  0
  8 14  1  0  0  0  0
  6 15  1  0  0  0  0
  4 16  1  0  0  0  0
  1 17  1  0  0  0  0
  1 18  1  0  0  0  0
  1 19  1  0  0  0  0
 13 20  1  0  0  0  0
 14 21  1  0  0  0  0
 15 22  1  0  0  0  0
 16 23  1  0  0  0  0
 17 24  1  0  0  0  0
M  END
