 xtb: 6.7.1 (edcfbbe)
          04062518003D

 24 24  0     0  0            999 V2000
   -2.4955   -0.4355   -0.2882 C   0  0  0  0  0  0  0  0  0  0  0  0
   -1.0731   -0.1954    0.2318 C   0  0  0  0  0  0  0  0  0  0  0  0
   -1.0400   -0.4014    1.3146 H   0  0  0  0  0  0  0  0  0  0  0  0
   -0.6235    1.2675    0.0236 C   0  0  0  0  0  0  0  0  0  0  0  0
   -1.2596    1.7433   -0.7337 H   0  0  0  0  0  0  0  0  0  0  0  0
    0.8338    1.3035   -0.5034 C   0  0  0  0  0  0  0  0  0  0  0  0
    1.2430    2.3087   -0.3503 H   0  0  0  0  0  0  0  0  0  0  0  0
    1.6893    0.3051    0.2955 C   0  0  0  0  0  0  0  0  0  0  0  0
    2.6996    0.2634   -0.1258 H   0  0  0  0  0  0  0  0  0  0  0  0
    1.0874   -1.1185    0.1553 C   0  0  0  0  0  0  0  0  0  0  0  0
    1.0118   -1.5581    1.1723 H   0  0  0  0  0  0  0  0  0  0  0  0
   -0.2018   -1.0921   -0.4292 O   0  0  0  0  0  0  0  0  0  0  0  0
    1.9053   -1.8681   -0.6633 O   0  0  0  0  0  0  0  0  0  0  0  0
    1.8245    0.6923    1.6371 O   0  0  0  0  0  0  0  0  0  0  0  0
    0.8889    1.0792   -1.8854 O   0  0  0  0  0  0  0  0  0  0  0  0
   -0.7409    1.9160    1.2708 O   0  0  0  0  0  0  0  0  0  0  0  0
   -3.0093   -1.6934    0.0577 O   0  0  0  0  0  0  0  0  0  0  0  0
   -2.4813   -0.4117   -1.3793 H   0  0  0  0  0  0  0  0  0  0  0  0
   -3.1385    0.3701    0.0869 H   0  0  0  0  0  0  0  0  0  0  0  0
    1.4992   -2.7332   -0.8329 H   0  0  0  0  0  0  0  0  0  0  0  0
    0.9774    1.0546    1.9548 H   0  0  0  0  0  0  0  0  0  0  0  0
    0.6519    0.1562   -2.0659 H   0  0  0  0  0  0  0  0  0  0  0  0
   -0.7206    2.8767    1.1534 H   0  0  0  0  0  0  0  0  0  0  0  0
   -3.0965   -1.7592    1.0196 H   0  0  0  0  0  0  0  0  0  0  0  0
  1  2  1  0  0  0  0
  2  3  1  0  0  0  0
  2  4  1  0  0  0  0
  4  5  1  0  0  0  0
  4  6  1  0  0  0  0
  6  7  1  0  0  0  0
  6  8  1  0  0  0  0
  8  9  1  0  0  0  0
  8 10  1  0  0  0  0
 10 11  1  0  0  0  0
  2 12  1  0  0  0  0
 10 12  1  0  0  0  0
 10 13  1  0  0  0  0
  8 14  1  0  0  0  0
  6 15  1  0  0  0  0
  4 16  1  0  0  0  0
  1 17  1  0  0  0  0
  1 18  1  0  0  0  0
  1 19  1  0  0  0  0
 13 20  1  0  0  0  0
 14 21  1  0  0  0  0
 15 22  1  0  0  0  0
 16 23  1  0  0  0  0
 17 24  1  0  0  0  0
M  END
