 xtb: 6.7.1 (edcfbbe)
          04062520053D

 27 27  0     0  0            999 V2000
   -3.3266    0.4264   -0.2383 C   0  0  0  0  0  0  0  0  0  0  0  0
   -1.8514    0.5080   -0.0329 C   0  0  0  0  0  0  0  0  0  0  0  0
   -1.0931    1.5502   -0.3512 C   0  0  0  0  0  0  0  0  0  0  0  0
    0.3793    1.4926   -0.1033 C   0  0  0  0  0  0  0  0  0  0  0  0
    0.9684    0.1730   -0.6562 C   0  0  0  0  0  0  0  0  0  0  0  0
    1.0041    0.2798   -1.7443 H   0  0  0  0  0  0  0  0  0  0  0  0
    0.0711   -1.0352   -0.3224 C   0  0  0  0  0  0  0  0  0  0  0  0
   -1.1376   -0.6787    0.5665 C   0  0  0  0  0  0  0  0  0  0  0  0
   -0.7722   -0.3902    1.5687 H   0  0  0  0  0  0  0  0  0  0  0  0
   -2.0216   -1.7737    0.6923 O   0  0  0  0  0  0  0  0  0  0  0  0
    2.3858    0.0137   -0.1622 C   0  0  0  0  0  0  0  0  0  0  0  0
    3.4158    0.2639   -0.9566 C   0  0  0  0  0  0  0  0  0  0  0  0
    2.5866   -0.4132    1.2634 C   0  0  0  0  0  0  0  0  0  0  0  0
   -3.5638   -0.4179   -0.8831 H   0  0  0  0  0  0  0  0  0  0  0  0
   -3.7018    1.3430   -0.6845 H   0  0  0  0  0  0  0  0  0  0  0  0
   -3.8254    0.2537    0.7139 H   0  0  0  0  0  0  0  0  0  0  0  0
   -1.5130    2.4410   -0.7916 H   0  0  0  0  0  0  0  0  0  0  0  0
    0.8915    2.3347   -0.5681 H   0  0  0  0  0  0  0  0  0  0  0  0
    0.5660    1.5438    0.9736 H   0  0  0  0  0  0  0  0  0  0  0  0
   -0.3333   -1.4548   -1.2457 H   0  0  0  0  0  0  0  0  0  0  0  0
    0.6531   -1.8174    0.1654 H   0  0  0  0  0  0  0  0  0  0  0  0
   -1.5420   -2.5255    1.0630 H   0  0  0  0  0  0  0  0  0  0  0  0
    4.4329    0.1850   -0.6112 H   0  0  0  0  0  0  0  0  0  0  0  0
    3.2858    0.5557   -1.9850 H   0  0  0  0  0  0  0  0  0  0  0  0
    2.6428   -1.4996    1.3275 H   0  0  0  0  0  0  0  0  0  0  0  0
    3.5184   -0.0118    1.6525 H   0  0  0  0  0  0  0  0  0  0  0  0
    1.7673   -0.0800    1.8944 H   0  0  0  0  0  0  0  0  0  0  0  0
  1  2  1  0  0  0  0
  2  3  2  0  0  0  0
  3  4  1  0  0  0  0
  4  5  1  0  0  0  0
  5  6  1  0  0  0  0
  5  7  1  0  0  0  0
  2  8  1  0  0  0  0
  7  8  1  0  0  0  0
  8  9  1  0  0  0  0
  8 10  1  0  0  0  0
  5 11  1  0  0  0  0
 11 12  2  0  0  0  0
 11 13  1  0  0  0  0
  1 14  1  0  0  0  0
  1 15  1  0  0  0  0
  1 16  1  0  0  0  0
  3 17  1  0  0  0  0
  4 18  1  0  0  0  0
  4 19  1  0  0  0  0
  7 20  1  0  0  0  0
  7 21  1  0  0  0  0
 10 22  1  0  0  0  0
 12 23  1  0  0  0  0
 12 24  1  0  0  0  0
 13 25  1  0  0  0  0
 13 26  1  0  0  0  0
 13 27  1  0  0  0  0
M  END
