 xtb: 6.7.1 (edcfbbe)
          04032521463D

 19 19  0     0  0            999 V2000
    2.3977   -0.6535   -0.1635 C   0  0  0  0  0  0  0  0  0  0  0  0
    1.0973   -0.1193    0.4218 C   0  0  0  0  0  0  0  0  0  0  0  0
    1.1447   -0.1733    1.5217 H   0  0  0  0  0  0  0  0  0  0  0  0
    0.7620    1.3105   -0.0188 C   0  0  0  0  0  0  0  0  0  0  0  0
   -0.7623    1.3106    0.0186 C   0  0  0  0  0  0  0  0  0  0  0  0
   -1.0983   -0.1190   -0.4223 C   0  0  0  0  0  0  0  0  0  0  0  0
   -1.1496   -0.1721   -1.5220 H   0  0  0  0  0  0  0  0  0  0  0  0
    0.0004   -0.9326   -0.0028 O   0  0  0  0  0  0  0  0  0  0  0  0
   -2.3967   -0.6542    0.1668 C   0  0  0  0  0  0  0  0  0  0  0  0
    2.3517   -0.6345   -1.2494 H   0  0  0  0  0  0  0  0  0  0  0  0
    3.2297   -0.0423    0.1737 H   0  0  0  0  0  0  0  0  0  0  0  0
    2.5517   -1.6797    0.1580 H   0  0  0  0  0  0  0  0  0  0  0  0
    1.2075    2.0536    0.6372 H   0  0  0  0  0  0  0  0  0  0  0  0
    1.1169    1.4725   -1.0375 H   0  0  0  0  0  0  0  0  0  0  0  0
   -1.1170    1.4725    1.0374 H   0  0  0  0  0  0  0  0  0  0  0  0
   -1.2077    2.0539   -0.6371 H   0  0  0  0  0  0  0  0  0  0  0  0
   -3.2299   -0.0426   -0.1665 H   0  0  0  0  0  0  0  0  0  0  0  0
   -2.3469   -0.6366    1.2527 H   0  0  0  0  0  0  0  0  0  0  0  0
   -2.5519   -1.6799   -0.1554 H   0  0  0  0  0  0  0  0  0  0  0  0
  1  2  1  0  0  0  0
  2  3  1  0  0  0  0
  2  4  1  0  0  0  0
  4  5  1  0  0  0  0
  5  6  1  0  0  0  0
  6  7  1  0  0  0  0
  2  8  1  0  0  0  0
  6  8  1  0  0  0  0
  6  9  1  0  0  0  0
  1 10  1  0  0  0  0
  1 11  1  0  0  0  0
  1 12  1  0  0  0  0
  4 13  1  0  0  0  0
  4 14  1  0  0  0  0
  5 15  1  0  0  0  0
  5 16  1  0  0  0  0
  9 17  1  0  0  0  0
  9 18  1  0  0  0  0
  9 19  1  0  0  0  0
M  END
