 xtb: 6.7.1 (edcfbbe)
          04062501173D

 23 22  0     0  0            999 V2000
   -2.4972    1.0081   -0.0044 C   0  0  0  0  0  0  0  0  0  0  0  0
   -1.7183   -0.2078   -0.4969 C   0  0  0  0  0  0  0  0  0  0  0  0
   -0.5908   -0.6304    0.4570 C   0  0  0  0  0  0  0  0  0  0  0  0
    0.8334   -0.1685    0.0915 C   0  0  0  0  0  0  0  0  0  0  0  0
    1.3089   -0.8555   -1.1917 C   0  0  0  0  0  0  0  0  0  0  0  0
    0.9075    1.3492   -0.0836 C   0  0  0  0  0  0  0  0  0  0  0  0
    1.7672   -0.5771    1.2372 C   0  0  0  0  0  0  0  0  0  0  0  0
   -2.9559    0.7983    0.9597 H   0  0  0  0  0  0  0  0  0  0  0  0
   -1.8493    1.8725    0.1065 H   0  0  0  0  0  0  0  0  0  0  0  0
   -3.2870    1.2604   -0.7090 H   0  0  0  0  0  0  0  0  0  0  0  0
   -2.4193   -1.0385   -0.6048 H   0  0  0  0  0  0  0  0  0  0  0  0
   -1.3171    0.0000   -1.4891 H   0  0  0  0  0  0  0  0  0  0  0  0
   -0.5693   -1.7211    0.5177 H   0  0  0  0  0  0  0  0  0  0  0  0
   -0.8271   -0.2599    1.4571 H   0  0  0  0  0  0  0  0  0  0  0  0
    2.3323   -0.5638   -1.4167 H   0  0  0  0  0  0  0  0  0  0  0  0
    1.2775   -1.9369   -1.0793 H   0  0  0  0  0  0  0  0  0  0  0  0
    0.6873   -0.5824   -2.0405 H   0  0  0  0  0  0  0  0  0  0  0  0
    1.9364    1.6536   -0.2647 H   0  0  0  0  0  0  0  0  0  0  0  0
    0.5564    1.8544    0.8134 H   0  0  0  0  0  0  0  0  0  0  0  0
    0.3067    1.6757   -0.9279 H   0  0  0  0  0  0  0  0  0  0  0  0
    1.7305   -1.6524    1.3971 H   0  0  0  0  0  0  0  0  0  0  0  0
    2.7939   -0.3003    1.0090 H   0  0  0  0  0  0  0  0  0  0  0  0
    1.4781   -0.0835    2.1624 H   0  0  0  0  0  0  0  0  0  0  0  0
  1  2  1  0  0  0  0
  2  3  1  0  0  0  0
  3  4  1  0  0  0  0
  4  5  1  0  0  0  0
  4  6  1  0  0  0  0
  4  7  1  0  0  0  0
  1  8  1  0  0  0  0
  1  9  1  0  0  0  0
  1 10  1  0  0  0  0
  2 11  1  0  0  0  0
  2 12  1  0  0  0  0
  3 13  1  0  0  0  0
  3 14  1  0  0  0  0
  5 15  1  0  0  0  0
  5 16  1  0  0  0  0
  5 17  1  0  0  0  0
  6 18  1  0  0  0  0
  6 19  1  0  0  0  0
  6 20  1  0  0  0  0
  7 21  1  0  0  0  0
  7 22  1  0  0  0  0
  7 23  1  0  0  0  0
M  END
