 xtb: 6.7.1 (edcfbbe)
          04062508313D

 24 24  0     0  0            999 V2000
   -2.4530    0.1796    1.4745 C   0  0  0  0  0  0  0  0  0  0  0  0
   -1.1892    0.1080    0.8104 O   0  0  0  0  0  0  0  0  0  0  0  0
   -1.1991   -0.1976   -0.4784 C   0  0  0  0  0  0  0  0  0  0  0  0
   -2.2313   -0.4107   -1.0873 O   0  0  0  0  0  0  0  0  0  0  0  0
    0.1638   -0.2604   -1.1303 C   0  0  0  0  0  0  0  0  0  0  0  0
    1.0518   -1.3567   -0.5201 C   0  0  0  0  0  0  0  0  0  0  0  0
    1.6249   -0.9718    0.8397 C   0  0  0  0  0  0  0  0  0  0  0  0
    2.3866    0.3458    0.7444 C   0  0  0  0  0  0  0  0  0  0  0  0
    1.4552    1.4506    0.2572 C   0  0  0  0  0  0  0  0  0  0  0  0
    0.8806    1.0992   -1.1111 C   0  0  0  0  0  0  0  0  0  0  0  0
   -3.0794    0.9377    1.0030 H   0  0  0  0  0  0  0  0  0  0  0  0
   -2.2311    0.4411    2.5044 H   0  0  0  0  0  0  0  0  0  0  0  0
   -2.9606   -0.7838    1.4146 H   0  0  0  0  0  0  0  0  0  0  0  0
   -0.0464   -0.5258   -2.1728 H   0  0  0  0  0  0  0  0  0  0  0  0
    0.4791   -2.2834   -0.4408 H   0  0  0  0  0  0  0  0  0  0  0  0
    1.8759   -1.5321   -1.2145 H   0  0  0  0  0  0  0  0  0  0  0  0
    0.8183   -0.8698    1.5659 H   0  0  0  0  0  0  0  0  0  0  0  0
    2.2904   -1.7661    1.1824 H   0  0  0  0  0  0  0  0  0  0  0  0
    2.7961    0.6092    1.7206 H   0  0  0  0  0  0  0  0  0  0  0  0
    3.2198    0.2364    0.0466 H   0  0  0  0  0  0  0  0  0  0  0  0
    0.6461    1.5826    0.9758 H   0  0  0  0  0  0  0  0  0  0  0  0
    1.9989    2.3941    0.1826 H   0  0  0  0  0  0  0  0  0  0  0  0
    0.1892    1.8772   -1.4424 H   0  0  0  0  0  0  0  0  0  0  0  0
    1.6964    1.0476   -1.8348 H   0  0  0  0  0  0  0  0  0  0  0  0
  1  2  1  0  0  0  0
  2  3  1  0  0  0  0
  3  4  2  0  0  0  0
  3  5  1  0  0  0  0
  5  6  1  0  0  0  0
  6  7  1  0  0  0  0
  7  8  1  0  0  0  0
  8  9  1  0  0  0  0
  5 10  1  0  0  0  0
  9 10  1  0  0  0  0
  1 11  1  0  0  0  0
  1 12  1  0  0  0  0
  1 13  1  0  0  0  0
  5 14  1  0  0  0  0
  6 15  1  0  0  0  0
  6 16  1  0  0  0  0
  7 17  1  0  0  0  0
  7 18  1  0  0  0  0
  8 19  1  0  0  0  0
  8 20  1  0  0  0  0
  9 21  1  0  0  0  0
  9 22  1  0  0  0  0
 10 23  1  0  0  0  0
 10 24  1  0  0  0  0
M  END
