 xtb: 6.7.1 (edcfbbe)
          04032522173D

 12 11  0     0  0            999 V2000
    1.8572    0.0708    0.2587 C   0  0  0  0  0  0  0  0  0  0  0  0
    0.5451   -0.1657   -0.4706 C   0  0  0  0  0  0  0  0  0  0  0  0
   -0.5252    0.1435    0.4058 O   0  0  0  0  0  0  0  0  0  0  0  0
   -1.7934   -0.0440   -0.1780 C   0  0  0  0  0  0  0  0  0  0  0  0
    1.9207    1.1085    0.5731 H   0  0  0  0  0  0  0  0  0  0  0  0
    1.9063   -0.5611    1.1407 H   0  0  0  0  0  0  0  0  0  0  0  0
    2.6897   -0.1597   -0.3982 H   0  0  0  0  0  0  0  0  0  0  0  0
    0.4644   -1.2158   -0.7910 H   0  0  0  0  0  0  0  0  0  0  0  0
    0.4803    0.4707   -1.3665 H   0  0  0  0  0  0  0  0  0  0  0  0
   -1.9201    0.5998   -1.0561 H   0  0  0  0  0  0  0  0  0  0  0  0
   -2.5228    0.2230    0.5825 H   0  0  0  0  0  0  0  0  0  0  0  0
   -1.9362   -1.0882   -0.4792 H   0  0  0  0  0  0  0  0  0  0  0  0
  1  2  1  0  0  0  0
  2  3  1  0  0  0  0
  3  4  1  0  0  0  0
  1  5  1  0  0  0  0
  1  6  1  0  0  0  0
  1  7  1  0  0  0  0
  2  8  1  0  0  0  0
  2  9  1  0  0  0  0
  4 10  1  0  0  0  0
  4 11  1  0  0  0  0
  4 12  1  0  0  0  0
M  END
