 xtb: 6.7.1 (edcfbbe)
          04042518283D

 12 11  0     0  0            999 V2000
    2.1723    0.0616   -0.0013 C   0  0  0  0  0  0  0  0  0  0  0  0
    0.9893   -0.3355   -0.6995 O   0  0  0  0  0  0  0  0  0  0  0  0
   -0.4021   -0.0697    0.0378 S   0  0  0  0  0  0  0  0  0  0  0  0
   -0.2794   -0.4703    1.4230 O   0  0  0  0  0  0  0  0  0  0  0  0
   -1.3805   -0.7754   -0.7496 O   0  0  0  0  0  0  0  0  0  0  0  0
   -0.6486    1.6896   -0.0806 C   0  0  0  0  0  0  0  0  0  0  0  0
    2.4209    1.0903   -0.2608 H   0  0  0  0  0  0  0  0  0  0  0  0
    2.9658   -0.6104   -0.3209 H   0  0  0  0  0  0  0  0  0  0  0  0
    1.9999   -0.0401    1.0704 H   0  0  0  0  0  0  0  0  0  0  0  0
   -1.6552    1.8856    0.2605 H   0  0  0  0  0  0  0  0  0  0  0  0
    0.0785    2.1699    0.5584 H   0  0  0  0  0  0  0  0  0  0  0  0
   -0.5289    1.9551   -1.1209 H   0  0  0  0  0  0  0  0  0  0  0  0
  1  2  1  0  0  0  0
  2  3  1  0  0  0  0
  3  4  2  0  0  0  0
  3  5  2  0  0  0  0
  3  6  1  0  0  0  0
  1  7  1  0  0  0  0
  1  8  1  0  0  0  0
  1  9  1  0  0  0  0
  6 10  1  0  0  0  0
  6 11  1  0  0  0  0
  6 12  1  0  0  0  0
M  END
