 xtb: 6.7.1 (edcfbbe)
          04062518003D

 24 24  0     0  0            999 V2000
   -2.2643   -0.6696   -0.8318 C   0  0  0  0  0  0  0  0  0  0  0  0
   -1.1177   -0.5818    0.1757 C   0  0  0  0  0  0  0  0  0  0  0  0
   -1.4393   -1.0412    1.1256 H   0  0  0  0  0  0  0  0  0  0  0  0
   -0.7280    0.8850    0.4607 C   0  0  0  0  0  0  0  0  0  0  0  0
   -1.5786    1.5233    0.1965 H   0  0  0  0  0  0  0  0  0  0  0  0
    0.4774    1.2809   -0.4047 C   0  0  0  0  0  0  0  0  0  0  0  0
    0.7594    2.3108   -0.1370 H   0  0  0  0  0  0  0  0  0  0  0  0
    1.6782    0.3739   -0.0459 C   0  0  0  0  0  0  0  0  0  0  0  0
    2.3648    0.3207   -0.8975 H   0  0  0  0  0  0  0  0  0  0  0  0
    1.1892   -1.0630    0.2809 C   0  0  0  0  0  0  0  0  0  0  0  0
    1.0796   -1.1548    1.3748 H   0  0  0  0  0  0  0  0  0  0  0  0
   -0.0397   -1.3273   -0.3579 O   0  0  0  0  0  0  0  0  0  0  0  0
    2.0866   -2.0417   -0.1029 O   0  0  0  0  0  0  0  0  0  0  0  0
    2.4300    0.9197    1.0056 O   0  0  0  0  0  0  0  0  0  0  0  0
    0.0969    1.2003   -1.7518 O   0  0  0  0  0  0  0  0  0  0  0  0
   -0.3480    1.0855    1.8040 O   0  0  0  0  0  0  0  0  0  0  0  0
   -3.4098   -0.0980   -0.2434 O   0  0  0  0  0  0  0  0  0  0  0  0
   -2.4220   -1.7273   -1.0718 H   0  0  0  0  0  0  0  0  0  0  0  0
   -1.9653   -0.1330   -1.7386 H   0  0  0  0  0  0  0  0  0  0  0  0
    1.9966   -2.1943   -1.0569 H   0  0  0  0  0  0  0  0  0  0  0  0
    1.8412    1.0644    1.7640 H   0  0  0  0  0  0  0  0  0  0  0  0
    0.8069    1.5452   -2.3125 H   0  0  0  0  0  0  0  0  0  0  0  0
   -1.1344    1.0915    2.3674 H   0  0  0  0  0  0  0  0  0  0  0  0
   -4.1425   -0.1413   -0.8738 H   0  0  0  0  0  0  0  0  0  0  0  0
  1  2  1  0  0  0  0
  2  3  1  0  0  0  0
  2  4  1  0  0  0  0
  4  5  1  0  0  0  0
  4  6  1  0  0  0  0
  6  7  1  0  0  0  0
  6  8  1  0  0  0  0
  8  9  1  0  0  0  0
  8 10  1  0  0  0  0
 10 11  1  0  0  0  0
  2 12  1  0  0  0  0
 10 12  1  0  0  0  0
 10 13  1  0  0  0  0
  8 14  1  0  0  0  0
  6 15  1  0  0  0  0
  4 16  1  0  0  0  0
  1 17  1  0  0  0  0
  1 18  1  0  0  0  0
  1 19  1  0  0  0  0
 13 20  1  0  0  0  0
 14 21  1  0  0  0  0
 15 22  1  0  0  0  0
 16 23  1  0  0  0  0
 17 24  1  0  0  0  0
M  END
