 xtb: 6.7.1 (edcfbbe)
          04062518003D

 24 24  0     0  0            999 V2000
   -2.2804   -1.1120   -0.0760 C   0  0  0  0  0  0  0  0  0  0  0  0
   -0.8842   -0.5615    0.2440 C   0  0  0  0  0  0  0  0  0  0  0  0
   -0.7267   -0.5638    1.3325 H   0  0  0  0  0  0  0  0  0  0  0  0
   -0.7204    0.8780   -0.2746 C   0  0  0  0  0  0  0  0  0  0  0  0
   -1.0773    0.9025   -1.3176 H   0  0  0  0  0  0  0  0  0  0  0  0
    0.7713    1.2814   -0.2756 C   0  0  0  0  0  0  0  0  0  0  0  0
    0.8370    2.2637    0.2144 H   0  0  0  0  0  0  0  0  0  0  0  0
    1.6294    0.2756    0.5125 C   0  0  0  0  0  0  0  0  0  0  0  0
    2.6866    0.5127    0.3250 H   0  0  0  0  0  0  0  0  0  0  0  0
    1.4112   -1.1499   -0.0393 C   0  0  0  0  0  0  0  0  0  0  0  0
    1.7263   -1.8692    0.7335 H   0  0  0  0  0  0  0  0  0  0  0  0
    0.0618   -1.4084   -0.3836 O   0  0  0  0  0  0  0  0  0  0  0  0
    2.1998   -1.3989   -1.1450 O   0  0  0  0  0  0  0  0  0  0  0  0
    1.3522    0.2698    1.8877 O   0  0  0  0  0  0  0  0  0  0  0  0
    1.3140    1.3262   -1.5732 O   0  0  0  0  0  0  0  0  0  0  0  0
   -1.4289    1.8056    0.5074 O   0  0  0  0  0  0  0  0  0  0  0  0
   -3.2875   -0.3872    0.5892 O   0  0  0  0  0  0  0  0  0  0  0  0
   -2.3055   -2.1763    0.1741 H   0  0  0  0  0  0  0  0  0  0  0  0
   -2.4724   -1.0071   -1.1464 H   0  0  0  0  0  0  0  0  0  0  0  0
    1.9872   -0.7472   -1.8369 H   0  0  0  0  0  0  0  0  0  0  0  0
    1.6056    1.1190    2.2792 H   0  0  0  0  0  0  0  0  0  0  0  0
    0.9307    2.0649   -2.0673 H   0  0  0  0  0  0  0  0  0  0  0  0
   -2.3515    1.5027    0.5728 H   0  0  0  0  0  0  0  0  0  0  0  0
   -3.3266   -0.6622    1.5162 H   0  0  0  0  0  0  0  0  0  0  0  0
  1  2  1  0  0  0  0
  2  3  1  0  0  0  0
  2  4  1  0  0  0  0
  4  5  1  0  0  0  0
  4  6  1  0  0  0  0
  6  7  1  0  0  0  0
  6  8  1  0  0  0  0
  8  9  1  0  0  0  0
  8 10  1  0  0  0  0
 10 11  1  0  0  0  0
  2 12  1  0  0  0  0
 10 12  1  0  0  0  0
 10 13  1  0  0  0  0
  8 14  1  0  0  0  0
  6 15  1  0  0  0  0
  4 16  1  0  0  0  0
  1 17  1  0  0  0  0
  1 18  1  0  0  0  0
  1 19  1  0  0  0  0
 13 20  1  0  0  0  0
 14 21  1  0  0  0  0
 15 22  1  0  0  0  0
 16 23  1  0  0  0  0
 17 24  1  0  0  0  0
M  END
