 xtb: 6.7.1 (edcfbbe)
          04062518003D

 24 24  0     0  0            999 V2000
   -2.3582   -1.0088    0.3821 C   0  0  0  0  0  0  0  0  0  0  0  0
   -1.0809   -0.2546    0.8035 C   0  0  0  0  0  0  0  0  0  0  0  0
   -1.2938    0.2177    1.7708 H   0  0  0  0  0  0  0  0  0  0  0  0
   -0.6801    0.8533   -0.1762 C   0  0  0  0  0  0  0  0  0  0  0  0
   -0.6902    0.4732   -1.2106 H   0  0  0  0  0  0  0  0  0  0  0  0
    0.7522    1.2964    0.1615 C   0  0  0  0  0  0  0  0  0  0  0  0
    0.7975    1.5575    1.2252 H   0  0  0  0  0  0  0  0  0  0  0  0
    1.7266    0.1370   -0.1040 C   0  0  0  0  0  0  0  0  0  0  0  0
    2.0486    0.1647   -1.1570 H   0  0  0  0  0  0  0  0  0  0  0  0
    1.0042   -1.2135    0.0859 C   0  0  0  0  0  0  0  0  0  0  0  0
    1.7281   -1.9328    0.5013 H   0  0  0  0  0  0  0  0  0  0  0  0
   -0.0082   -1.1682    1.0468 O   0  0  0  0  0  0  0  0  0  0  0  0
    0.5485   -1.6191   -1.1684 O   0  0  0  0  0  0  0  0  0  0  0  0
    2.8383    0.1613    0.7516 O   0  0  0  0  0  0  0  0  0  0  0  0
    1.0911    2.4728   -0.5305 O   0  0  0  0  0  0  0  0  0  0  0  0
   -1.5928    1.9152   -0.0526 O   0  0  0  0  0  0  0  0  0  0  0  0
   -2.2548   -1.6880   -0.8459 O   0  0  0  0  0  0  0  0  0  0  0  0
   -3.1827   -0.2898    0.3739 H   0  0  0  0  0  0  0  0  0  0  0  0
   -2.5527   -1.7772    1.1334 H   0  0  0  0  0  0  0  0  0  0  0  0
   -0.1415   -2.2984   -1.0603 H   0  0  0  0  0  0  0  0  0  0  0  0
    3.3074    1.0033    0.6458 H   0  0  0  0  0  0  0  0  0  0  0  0
    1.1629    2.2886   -1.4796 H   0  0  0  0  0  0  0  0  0  0  0  0
   -1.1170    2.7453   -0.2236 H   0  0  0  0  0  0  0  0  0  0  0  0
   -2.3595   -1.0612   -1.5744 H   0  0  0  0  0  0  0  0  0  0  0  0
  1  2  1  0  0  0  0
  2  3  1  0  0  0  0
  2  4  1  0  0  0  0
  4  5  1  0  0  0  0
  4  6  1  0  0  0  0
  6  7  1  0  0  0  0
  6  8  1  0  0  0  0
  8  9  1  0  0  0  0
  8 10  1  0  0  0  0
 10 11  1  0  0  0  0
  2 12  1  0  0  0  0
 10 12  1  0  0  0  0
 10 13  1  0  0  0  0
  8 14  1  0  0  0  0
  6 15  1  0  0  0  0
  4 16  1  0  0  0  0
  1 17  1  0  0  0  0
  1 18  1  0  0  0  0
  1 19  1  0  0  0  0
 13 20  1  0  0  0  0
 14 21  1  0  0  0  0
 15 22  1  0  0  0  0
 16 23  1  0  0  0  0
 17 24  1  0  0  0  0
M  END
