 xtb: 6.7.1 (edcfbbe)
          04042518283D

 12 11  0     0  0            999 V2000
    1.9939   -0.8003   -0.3602 C   0  0  0  0  0  0  0  0  0  0  0  0
    1.1372    0.3362   -0.4087 O   0  0  0  0  0  0  0  0  0  0  0  0
   -0.3691    0.0531    0.0908 S   0  0  0  0  0  0  0  0  0  0  0  0
   -0.3187   -0.3461    1.4802 O   0  0  0  0  0  0  0  0  0  0  0  0
   -0.9664   -0.9202   -0.7970 O   0  0  0  0  0  0  0  0  0  0  0  0
   -1.0677    1.6727   -0.1196 C   0  0  0  0  0  0  0  0  0  0  0  0
    2.0433   -1.1693    0.6654 H   0  0  0  0  0  0  0  0  0  0  0  0
    2.9695   -0.4658   -0.7028 H   0  0  0  0  0  0  0  0  0  0  0  0
    1.5947   -1.5803   -1.0104 H   0  0  0  0  0  0  0  0  0  0  0  0
   -0.2601    2.2980   -0.4729 H   0  0  0  0  0  0  0  0  0  0  0  0
   -1.8606    1.5956   -0.8501 H   0  0  0  0  0  0  0  0  0  0  0  0
   -1.4328    2.0007    0.8434 H   0  0  0  0  0  0  0  0  0  0  0  0
  1  2  1  0  0  0  0
  2  3  1  0  0  0  0
  3  4  2  0  0  0  0
  3  5  2  0  0  0  0
  3  6  1  0  0  0  0
  1  7  1  0  0  0  0
  1  8  1  0  0  0  0
  1  9  1  0  0  0  0
  6 10  1  0  0  0  0
  6 11  1  0  0  0  0
  6 12  1  0  0  0  0
M  END
