 xtb: 6.7.1 (edcfbbe)
          04042516023D

 14 13  0     0  0            999 V2000
   -2.1263   -0.5079    0.7071 C   0  0  0  0  0  0  0  0  0  0  0  0
   -1.3446   -0.3594   -0.6019 C   0  0  0  0  0  0  0  0  0  0  0  0
   -0.0068    0.2674   -0.3086 C   0  0  0  0  0  0  0  0  0  0  0  0
    0.2270    1.4576   -0.3535 O   0  0  0  0  0  0  0  0  0  0  0  0
    0.8861   -0.6462    0.0491 O   0  0  0  0  0  0  0  0  0  0  0  0
    2.2017   -0.2232    0.4192 C   0  0  0  0  0  0  0  0  0  0  0  0
   -3.1016   -0.9394    0.5038 H   0  0  0  0  0  0  0  0  0  0  0  0
   -1.5902   -1.1569    1.3947 H   0  0  0  0  0  0  0  0  0  0  0  0
   -2.2635    0.4635    1.1762 H   0  0  0  0  0  0  0  0  0  0  0  0
   -1.8867    0.2887   -1.2893 H   0  0  0  0  0  0  0  0  0  0  0  0
   -1.1848   -1.3384   -1.0512 H   0  0  0  0  0  0  0  0  0  0  0  0
    2.8787   -0.4251   -0.4101 H   0  0  0  0  0  0  0  0  0  0  0  0
    2.4854   -0.8064    1.2916 H   0  0  0  0  0  0  0  0  0  0  0  0
    2.1987    0.8437    0.6451 H   0  0  0  0  0  0  0  0  0  0  0  0
  1  2  1  0  0  0  0
  2  3  1  0  0  0  0
  3  4  2  0  0  0  0
  3  5  1  0  0  0  0
  5  6  1  0  0  0  0
  1  7  1  0  0  0  0
  1  8  1  0  0  0  0
  1  9  1  0  0  0  0
  2 10  1  0  0  0  0
  2 11  1  0  0  0  0
  6 12  1  0  0  0  0
  6 13  1  0  0  0  0
  6 14  1  0  0  0  0
M  END
