 xtb: 6.7.1 (edcfbbe)
          04032521093D

  6  5  0     0  0            999 V2000
    0.6585   -0.0000    0.0000 C   0  0  0  0  0  0  0  0  0  0  0  0
   -0.6585    0.0000    0.0000 C   0  0  0  0  0  0  0  0  0  0  0  0
    1.2287    0.9142   -0.0000 H   0  0  0  0  0  0  0  0  0  0  0  0
    1.2287   -0.9142   -0.0001 H   0  0  0  0  0  0  0  0  0  0  0  0
   -1.2287   -0.9142   -0.0000 H   0  0  0  0  0  0  0  0  0  0  0  0
   -1.2287    0.9142   -0.0001 H   0  0  0  0  0  0  0  0  0  0  0  0
  1  2  2  0  0  0  0
  1  3  1  0  0  0  0
  1  4  1  0  0  0  0
  2  5  1  0  0  0  0
  2  6  1  0  0  0  0
M  END
