 xtb: 6.7.1 (edcfbbe)
          04042518543D

 15 14  0     0  0            999 V2000
    1.0399   -1.2559    0.2258 C   0  0  0  0  0  0  0  0  0  0  0  0
    0.5215   -0.0025   -0.4847 C   0  0  0  0  0  0  0  0  0  0  0  0
    1.0278    1.2590    0.2195 C   0  0  0  0  0  0  0  0  0  0  0  0
   -0.9850   -0.0154   -0.5551 C   0  0  0  0  0  0  0  0  0  0  0  0
   -1.7883    0.0140    0.4924 C   0  0  0  0  0  0  0  0  0  0  0  0
    0.6873   -2.1521   -0.2797 H   0  0  0  0  0  0  0  0  0  0  0  0
    0.6897   -1.2819    1.2543 H   0  0  0  0  0  0  0  0  0  0  0  0
    2.1272   -1.2641    0.2293 H   0  0  0  0  0  0  0  0  0  0  0  0
    0.9140   -0.0029   -1.5070 H   0  0  0  0  0  0  0  0  0  0  0  0
    2.1151    1.2804    0.2156 H   0  0  0  0  0  0  0  0  0  0  0  0
    0.6609    2.1491   -0.2864 H   0  0  0  0  0  0  0  0  0  0  0  0
    0.6854    1.2842    1.2505 H   0  0  0  0  0  0  0  0  0  0  0  0
   -1.4116   -0.0564   -1.5488 H   0  0  0  0  0  0  0  0  0  0  0  0
   -2.8595   -0.0003    0.3869 H   0  0  0  0  0  0  0  0  0  0  0  0
   -1.4149    0.0538    1.5021 H   0  0  0  0  0  0  0  0  0  0  0  0
  1  2  1  0  0  0  0
  2  3  1  0  0  0  0
  2  4  1  0  0  0  0
  4  5  2  0  0  0  0
  1  6  1  0  0  0  0
  1  7  1  0  0  0  0
  1  8  1  0  0  0  0
  2  9  1  0  0  0  0
  3 10  1  0  0  0  0
  3 11  1  0  0  0  0
  3 12  1  0  0  0  0
  4 13  1  0  0  0  0
  5 14  1  0  0  0  0
  5 15  1  0  0  0  0
M  END
