 xtb: 6.7.1 (edcfbbe)
          04032522173D

 12 11  0     0  0            999 V2000
   -1.5899   -0.1730    0.4879 C   0  0  0  0  0  0  0  0  0  0  0  0
   -0.6772    0.4999   -0.5308 C   0  0  0  0  0  0  0  0  0  0  0  0
    0.6778   -0.2036   -0.6274 C   0  0  0  0  0  0  0  0  0  0  0  0
    1.4266   -0.1391    0.5686 O   0  0  0  0  0  0  0  0  0  0  0  0
   -2.5118    0.3899    0.6074 H   0  0  0  0  0  0  0  0  0  0  0  0
   -1.8372   -1.1817    0.1657 H   0  0  0  0  0  0  0  0  0  0  0  0
   -1.0905   -0.2373    1.4519 H   0  0  0  0  0  0  0  0  0  0  0  0
   -0.5187    1.5435   -0.2490 H   0  0  0  0  0  0  0  0  0  0  0  0
   -1.1424    0.4842   -1.5172 H   0  0  0  0  0  0  0  0  0  0  0  0
    0.5334   -1.2699   -0.8176 H   0  0  0  0  0  0  0  0  0  0  0  0
    1.2599    0.2201   -1.4578 H   0  0  0  0  0  0  0  0  0  0  0  0
    1.6001    0.7891    0.7787 H   0  0  0  0  0  0  0  0  0  0  0  0
  1  2  1  0  0  0  0
  2  3  1  0  0  0  0
  3  4  1  0  0  0  0
  1  5  1  0  0  0  0
  1  6  1  0  0  0  0
  1  7  1  0  0  0  0
  2  8  1  0  0  0  0
  2  9  1  0  0  0  0
  3 10  1  0  0  0  0
  3 11  1  0  0  0  0
  4 12  1  0  0  0  0
M  END
