 xtb: 6.7.1 (edcfbbe)
          04042519553D

 16 16  0     0  0            999 V2000
   -2.7395    0.2191    0.6703 C   0  0  0  0  0  0  0  0  0  0  0  0
   -1.9331   -0.2293   -0.5510 C   0  0  0  0  0  0  0  0  0  0  0  0
   -0.4639   -0.1156   -0.2901 C   0  0  0  0  0  0  0  0  0  0  0  0
    0.1830    1.1219   -0.2365 C   0  0  0  0  0  0  0  0  0  0  0  0
    1.4752    1.2338    0.0204 N   0  0  0  0  0  0  0  0  0  0  0  0
    2.1482    0.1075    0.2271 C   0  0  0  0  0  0  0  0  0  0  0  0
    1.5191   -1.1268    0.1684 C   0  0  0  0  0  0  0  0  0  0  0  0
    0.2230   -1.2364   -0.0878 N   0  0  0  0  0  0  0  0  0  0  0  0
   -2.5017   -0.4040    1.5289 H   0  0  0  0  0  0  0  0  0  0  0  0
   -3.8022    0.1336    0.4630 H   0  0  0  0  0  0  0  0  0  0  0  0
   -2.5150    1.2530    0.9214 H   0  0  0  0  0  0  0  0  0  0  0  0
   -2.1951    0.3956   -1.4065 H   0  0  0  0  0  0  0  0  0  0  0  0
   -2.1636   -1.2685   -0.7830 H   0  0  0  0  0  0  0  0  0  0  0  0
   -0.3494    2.0468   -0.4098 H   0  0  0  0  0  0  0  0  0  0  0  0
    3.2023    0.2097    0.4379 H   0  0  0  0  0  0  0  0  0  0  0  0
    2.0538   -2.0525    0.3265 H   0  0  0  0  0  0  0  0  0  0  0  0
  1  2  1  0  0  0  0
  2  3  1  0  0  0  0
  3  4  4  0  0  0  0
  4  5  4  0  0  0  0
  5  6  4  0  0  0  0
  6  7  4  0  0  0  0
  3  8  4  0  0  0  0
  7  8  4  0  0  0  0
  1  9  1  0  0  0  0
  1 10  1  0  0  0  0
  1 11  1  0  0  0  0
  2 12  1  0  0  0  0
  2 13  1  0  0  0  0
  4 14  1  0  0  0  0
  6 15  1  0  0  0  0
  7 16  1  0  0  0  0
M  END
