 xtb: 6.7.1 (edcfbbe)
          04032521533D

 13 13  0     0  0            999 V2000
   -0.0000   -2.5149   -0.0000 C   0  0  0  0  0  0  0  0  0  0  0  0
    1.2071   -1.8330   -0.0000 C   0  0  0  0  0  0  0  0  0  0  0  0
    1.2058   -0.4503    0.0000 C   0  0  0  0  0  0  0  0  0  0  0  0
    0.0000    0.2627    0.0001 C   0  0  0  0  0  0  0  0  0  0  0  0
   -1.2058   -0.4502    0.0001 C   0  0  0  0  0  0  0  0  0  0  0  0
   -1.2071   -1.8330    0.0000 C   0  0  0  0  0  0  0  0  0  0  0  0
   -2.6966    0.4323   -0.0000 Cl  0  0  0  0  0  0  0  0  0  0  0  0
    0.0000    1.6741    0.0000 C   0  0  0  0  0  0  0  0  0  0  0  0
    0.0000    2.8218   -0.0000 N   0  0  0  0  0  0  0  0  0  0  0  0
    2.6966    0.4322   -0.0000 Cl  0  0  0  0  0  0  0  0  0  0  0  0
   -0.0000   -3.5925   -0.0001 H   0  0  0  0  0  0  0  0  0  0  0  0
    2.1444   -2.3632   -0.0000 H   0  0  0  0  0  0  0  0  0  0  0  0
   -2.1444   -2.3632    0.0000 H   0  0  0  0  0  0  0  0  0  0  0  0
  1  2  4  0  0  0  0
  2  3  4  0  0  0  0
  3  4  4  0  0  0  0
  4  5  4  0  0  0  0
  1  6  4  0  0  0  0
  5  6  4  0  0  0  0
  5  7  1  0  0  0  0
  4  8  1  0  0  0  0
  8  9  3  0  0  0  0
  3 10  1  0  0  0  0
  1 11  1  0  0  0  0
  2 12  1  0  0  0  0
  6 13  1  0  0  0  0
M  END
