 xtb: 6.7.1 (edcfbbe)
          04062518003D

 24 24  0     0  0            999 V2000
   -2.3990   -1.1998   -0.1871 C   0  0  0  0  0  0  0  0  0  0  0  0
   -1.0791   -0.6341    0.3766 C   0  0  0  0  0  0  0  0  0  0  0  0
   -1.1074   -0.6043    1.4770 H   0  0  0  0  0  0  0  0  0  0  0  0
   -0.8082    0.7997   -0.1085 C   0  0  0  0  0  0  0  0  0  0  0  0
   -0.9955    0.8511   -1.1928 H   0  0  0  0  0  0  0  0  0  0  0  0
    0.6469    1.2278    0.1760 C   0  0  0  0  0  0  0  0  0  0  0  0
    0.7710    1.3520    1.2587 H   0  0  0  0  0  0  0  0  0  0  0  0
    1.6281    0.1582   -0.3038 C   0  0  0  0  0  0  0  0  0  0  0  0
    1.5524    0.0569   -1.4003 H   0  0  0  0  0  0  0  0  0  0  0  0
    1.2256   -1.1890    0.3349 C   0  0  0  0  0  0  0  0  0  0  0  0
    1.3017   -1.0968    1.4321 H   0  0  0  0  0  0  0  0  0  0  0  0
   -0.0783   -1.5368   -0.0532 O   0  0  0  0  0  0  0  0  0  0  0  0
    2.0829   -2.2054   -0.0462 O   0  0  0  0  0  0  0  0  0  0  0  0
    2.9335    0.5171    0.0647 O   0  0  0  0  0  0  0  0  0  0  0  0
    0.8877    2.5016   -0.3672 O   0  0  0  0  0  0  0  0  0  0  0  0
   -1.6913    1.6506    0.5796 O   0  0  0  0  0  0  0  0  0  0  0  0
   -3.4192   -0.2579   -0.3621 O   0  0  0  0  0  0  0  0  0  0  0  0
   -2.7297   -2.0224    0.4601 H   0  0  0  0  0  0  0  0  0  0  0  0
   -2.1877   -1.6069   -1.1792 H   0  0  0  0  0  0  0  0  0  0  0  0
    1.7597   -2.5997   -0.8720 H   0  0  0  0  0  0  0  0  0  0  0  0
    3.5046   -0.2642   -0.0078 H   0  0  0  0  0  0  0  0  0  0  0  0
    1.0791    2.4313   -1.3135 H   0  0  0  0  0  0  0  0  0  0  0  0
   -1.4384    2.5687    0.3961 H   0  0  0  0  0  0  0  0  0  0  0  0
   -3.5018    0.2866    0.4349 H   0  0  0  0  0  0  0  0  0  0  0  0
  1  2  1  0  0  0  0
  2  3  1  0  0  0  0
  2  4  1  0  0  0  0
  4  5  1  0  0  0  0
  4  6  1  0  0  0  0
  6  7  1  0  0  0  0
  6  8  1  0  0  0  0
  8  9  1  0  0  0  0
  8 10  1  0  0  0  0
 10 11  1  0  0  0  0
  2 12  1  0  0  0  0
 10 12  1  0  0  0  0
 10 13  1  0  0  0  0
  8 14  1  0  0  0  0
  6 15  1  0  0  0  0
  4 16  1  0  0  0  0
  1 17  1  0  0  0  0
  1 18  1  0  0  0  0
  1 19  1  0  0  0  0
 13 20  1  0  0  0  0
 14 21  1  0  0  0  0
 15 22  1  0  0  0  0
 16 23  1  0  0  0  0
 17 24  1  0  0  0  0
M  END
