 xtb: 6.7.1 (edcfbbe)
          04062518003D

 24 24  0     0  0            999 V2000
   -1.6779   -1.3642   -0.5604 C   0  0  0  0  0  0  0  0  0  0  0  0
   -1.1369   -0.4919    0.5826 C   0  0  0  0  0  0  0  0  0  0  0  0
   -1.8931   -0.4449    1.3733 H   0  0  0  0  0  0  0  0  0  0  0  0
   -0.8755    0.9595    0.1303 C   0  0  0  0  0  0  0  0  0  0  0  0
   -1.2318    1.0737   -0.9056 H   0  0  0  0  0  0  0  0  0  0  0  0
    0.6250    1.2747    0.1859 C   0  0  0  0  0  0  0  0  0  0  0  0
    0.9163    1.4217    1.2322 H   0  0  0  0  0  0  0  0  0  0  0  0
    1.4355    0.1068   -0.3883 C   0  0  0  0  0  0  0  0  0  0  0  0
    1.1220   -0.0902   -1.4268 H   0  0  0  0  0  0  0  0  0  0  0  0
    1.1719   -1.1593    0.4422 C   0  0  0  0  0  0  0  0  0  0  0  0
    1.9767   -1.2472    1.1860 H   0  0  0  0  0  0  0  0  0  0  0  0
   -0.0062   -1.0775    1.2104 O   0  0  0  0  0  0  0  0  0  0  0  0
    1.1637   -2.2536   -0.4194 O   0  0  0  0  0  0  0  0  0  0  0  0
    2.8124    0.3779   -0.3530 O   0  0  0  0  0  0  0  0  0  0  0  0
    0.9435    2.4772   -0.4705 O   0  0  0  0  0  0  0  0  0  0  0  0
   -1.6069    1.8150    0.9752 O   0  0  0  0  0  0  0  0  0  0  0  0
   -2.8517   -0.7662   -1.0587 O   0  0  0  0  0  0  0  0  0  0  0  0
   -1.8807   -2.3610   -0.1533 H   0  0  0  0  0  0  0  0  0  0  0  0
   -0.9201   -1.4527   -1.3494 H   0  0  0  0  0  0  0  0  0  0  0  0
    1.2147   -3.0796    0.0851 H   0  0  0  0  0  0  0  0  0  0  0  0
    2.9419    1.3214   -0.5501 H   0  0  0  0  0  0  0  0  0  0  0  0
    0.6484    2.4349   -1.3934 H   0  0  0  0  0  0  0  0  0  0  0  0
   -1.3891    2.7356    0.7631 H   0  0  0  0  0  0  0  0  0  0  0  0
   -3.2696   -1.3669   -1.6920 H   0  0  0  0  0  0  0  0  0  0  0  0
  1  2  1  0  0  0  0
  2  3  1  0  0  0  0
  2  4  1  0  0  0  0
  4  5  1  0  0  0  0
  4  6  1  0  0  0  0
  6  7  1  0  0  0  0
  6  8  1  0  0  0  0
  8  9  1  0  0  0  0
  8 10  1  0  0  0  0
 10 11  1  0  0  0  0
  2 12  1  0  0  0  0
 10 12  1  0  0  0  0
 10 13  1  0  0  0  0
  8 14  1  0  0  0  0
  6 15  1  0  0  0  0
  4 16  1  0  0  0  0
  1 17  1  0  0  0  0
  1 18  1  0  0  0  0
  1 19  1  0  0  0  0
 13 20  1  0  0  0  0
 14 21  1  0  0  0  0
 15 22  1  0  0  0  0
 16 23  1  0  0  0  0
 17 24  1  0  0  0  0
M  END
