 xtb: 6.7.1 (edcfbbe)
          04052516073D

 27 27  0     0  0            999 V2000
   -2.4294    0.1142   -1.4091 C   0  0  0  0  0  0  0  0  0  0  0  0
   -2.0474    0.4695    0.0343 C   0  0  0  0  0  0  0  0  0  0  0  0
   -2.9819    0.6558    0.5767 H   0  0  0  0  0  0  0  0  0  0  0  0
   -1.1528    1.7021    0.1272 C   0  0  0  0  0  0  0  0  0  0  0  0
    0.2560    1.4866   -0.4438 C   0  0  0  0  0  0  0  0  0  0  0  0
    0.7640    0.0465   -0.2750 C   0  0  0  0  0  0  0  0  0  0  0  0
    0.4560   -0.5462   -1.1470 H   0  0  0  0  0  0  0  0  0  0  0  0
    0.0836   -0.5913    0.9479 C   0  0  0  0  0  0  0  0  0  0  0  0
   -1.3918   -0.7212    0.6958 C   0  0  0  0  0  0  0  0  0  0  0  0
   -2.0172   -1.7249    0.9843 O   0  0  0  0  0  0  0  0  0  0  0  0
    2.2751   -0.0699   -0.2275 C   0  0  0  0  0  0  0  0  0  0  0  0
    3.1021    0.9035   -0.5775 C   0  0  0  0  0  0  0  0  0  0  0  0
    2.8158   -1.4158    0.1649 C   0  0  0  0  0  0  0  0  0  0  0  0
   -1.5465   -0.0312   -2.0242 H   0  0  0  0  0  0  0  0  0  0  0  0
   -3.0162   -0.8016   -1.4208 H   0  0  0  0  0  0  0  0  0  0  0  0
   -3.0230    0.9166   -1.8385 H   0  0  0  0  0  0  0  0  0  0  0  0
   -1.6303    2.5317   -0.3953 H   0  0  0  0  0  0  0  0  0  0  0  0
   -1.0765    1.9839    1.1791 H   0  0  0  0  0  0  0  0  0  0  0  0
    0.2759    1.7492   -1.5015 H   0  0  0  0  0  0  0  0  0  0  0  0
    0.9271    2.1682    0.0788 H   0  0  0  0  0  0  0  0  0  0  0  0
    0.4771   -1.5809    1.1747 H   0  0  0  0  0  0  0  0  0  0  0  0
    0.2331    0.0465    1.8217 H   0  0  0  0  0  0  0  0  0  0  0  0
    4.1682    0.7507   -0.5669 H   0  0  0  0  0  0  0  0  0  0  0  0
    2.7786    1.8787   -0.8914 H   0  0  0  0  0  0  0  0  0  0  0  0
    2.2461   -2.2137   -0.3077 H   0  0  0  0  0  0  0  0  0  0  0  0
    3.8565   -1.5070   -0.1337 H   0  0  0  0  0  0  0  0  0  0  0  0
    2.7635   -1.5517    1.2441 H   0  0  0  0  0  0  0  0  0  0  0  0
  1  2  1  0  0  0  0
  2  3  1  0  0  0  0
  2  4  1  0  0  0  0
  4  5  1  0  0  0  0
  5  6  1  0  0  0  0
  6  7  1  0  0  0  0
  6  8  1  0  0  0  0
  2  9  1  0  0  0  0
  8  9  1  0  0  0  0
  9 10  2  0  0  0  0
  6 11  1  0  0  0  0
 11 12  2  0  0  0  0
 11 13  1  0  0  0  0
  1 14  1  0  0  0  0
  1 15  1  0  0  0  0
  1 16  1  0  0  0  0
  4 17  1  0  0  0  0
  4 18  1  0  0  0  0
  5 19  1  0  0  0  0
  5 20  1  0  0  0  0
  8 21  1  0  0  0  0
  8 22  1  0  0  0  0
 12 23  1  0  0  0  0
 12 24  1  0  0  0  0
 13 25  1  0  0  0  0
 13 26  1  0  0  0  0
 13 27  1  0  0  0  0
M  END
