 xtb: 6.7.1 (edcfbbe)
          04062518003D

 24 24  0     0  0            999 V2000
   -2.3847   -0.7846   -0.0700 C   0  0  0  0  0  0  0  0  0  0  0  0
   -0.9631   -0.3519    0.2932 C   0  0  0  0  0  0  0  0  0  0  0  0
   -0.9463   -0.0986    1.3631 H   0  0  0  0  0  0  0  0  0  0  0  0
   -0.5085    0.8674   -0.5300 C   0  0  0  0  0  0  0  0  0  0  0  0
   -0.4721    0.5780   -1.5866 H   0  0  0  0  0  0  0  0  0  0  0  0
    0.9041    1.3095   -0.0853 C   0  0  0  0  0  0  0  0  0  0  0  0
    0.8092    2.0899    0.6784 H   0  0  0  0  0  0  0  0  0  0  0  0
    1.6798    0.1401    0.5581 C   0  0  0  0  0  0  0  0  0  0  0  0
    2.7480    0.3019    0.3558 H   0  0  0  0  0  0  0  0  0  0  0  0
    1.2590   -1.1717   -0.1215 C   0  0  0  0  0  0  0  0  0  0  0  0
    1.7991   -2.0261    0.3173 H   0  0  0  0  0  0  0  0  0  0  0  0
   -0.0994   -1.4652    0.0692 O   0  0  0  0  0  0  0  0  0  0  0  0
    1.5772   -1.0402   -1.4771 O   0  0  0  0  0  0  0  0  0  0  0  0
    1.4188    0.1349    1.9363 O   0  0  0  0  0  0  0  0  0  0  0  0
    1.6305    1.8937   -1.1322 O   0  0  0  0  0  0  0  0  0  0  0  0
   -1.4377    1.9162   -0.4730 O   0  0  0  0  0  0  0  0  0  0  0  0
   -2.9830   -1.3758    1.0613 O   0  0  0  0  0  0  0  0  0  0  0  0
   -2.3267   -1.4975   -0.9002 H   0  0  0  0  0  0  0  0  0  0  0  0
   -2.9454    0.1038   -0.3861 H   0  0  0  0  0  0  0  0  0  0  0  0
    1.3745   -1.8642   -1.9461 H   0  0  0  0  0  0  0  0  0  0  0  0
    1.9825   -0.5129    2.3837 H   0  0  0  0  0  0  0  0  0  0  0  0
    1.7860    1.2233   -1.8162 H   0  0  0  0  0  0  0  0  0  0  0  0
   -1.4703    2.2760    0.4256 H   0  0  0  0  0  0  0  0  0  0  0  0
   -3.8675   -1.6889    0.8253 H   0  0  0  0  0  0  0  0  0  0  0  0
  1  2  1  0  0  0  0
  2  3  1  0  0  0  0
  2  4  1  0  0  0  0
  4  5  1  0  0  0  0
  4  6  1  0  0  0  0
  6  7  1  0  0  0  0
  6  8  1  0  0  0  0
  8  9  1  0  0  0  0
  8 10  1  0  0  0  0
 10 11  1  0  0  0  0
  2 12  1  0  0  0  0
 10 12  1  0  0  0  0
 10 13  1  0  0  0  0
  8 14  1  0  0  0  0
  6 15  1  0  0  0  0
  4 16  1  0  0  0  0
  1 17  1  0  0  0  0
  1 18  1  0  0  0  0
  1 19  1  0  0  0  0
 13 20  1  0  0  0  0
 14 21  1  0  0  0  0
 15 22  1  0  0  0  0
 16 23  1  0  0  0  0
 17 24  1  0  0  0  0
M  END
