 xtb: 6.7.1 (edcfbbe)
          04062518003D

 24 24  0     0  0            999 V2000
   -1.8273   -1.0170   -0.6788 C   0  0  0  0  0  0  0  0  0  0  0  0
   -1.0464   -0.4393    0.5213 C   0  0  0  0  0  0  0  0  0  0  0  0
   -1.7020   -0.5039    1.3985 H   0  0  0  0  0  0  0  0  0  0  0  0
   -0.6692    1.0437    0.3310 C   0  0  0  0  0  0  0  0  0  0  0  0
   -1.4740    1.5374   -0.2249 H   0  0  0  0  0  0  0  0  0  0  0  0
    0.6407    1.2398   -0.4680 C   0  0  0  0  0  0  0  0  0  0  0  0
    0.9453    2.2845   -0.3209 H   0  0  0  0  0  0  0  0  0  0  0  0
    1.7413    0.3305    0.0972 C   0  0  0  0  0  0  0  0  0  0  0  0
    2.6087    0.3755   -0.5762 H   0  0  0  0  0  0  0  0  0  0  0  0
    1.2383   -1.1269    0.1305 C   0  0  0  0  0  0  0  0  0  0  0  0
    1.9598   -1.7477    0.6838 H   0  0  0  0  0  0  0  0  0  0  0  0
    0.0612   -1.2672    0.8767 O   0  0  0  0  0  0  0  0  0  0  0  0
    1.1150   -1.5639   -1.1913 O   0  0  0  0  0  0  0  0  0  0  0  0
    2.0624    0.7870    1.3856 O   0  0  0  0  0  0  0  0  0  0  0  0
    0.4703    1.0643   -1.8504 O   0  0  0  0  0  0  0  0  0  0  0  0
   -0.6029    1.7174    1.5647 O   0  0  0  0  0  0  0  0  0  0  0  0
   -3.1934   -0.6843   -0.6351 O   0  0  0  0  0  0  0  0  0  0  0  0
   -1.7941   -2.1070   -0.6116 H   0  0  0  0  0  0  0  0  0  0  0  0
   -1.3817   -0.6977   -1.6265 H   0  0  0  0  0  0  0  0  0  0  0  0
    0.9400   -2.5164   -1.2214 H   0  0  0  0  0  0  0  0  0  0  0  0
    2.8300    0.3109    1.7341 H   0  0  0  0  0  0  0  0  0  0  0  0
    0.6263    0.1303   -2.0716 H   0  0  0  0  0  0  0  0  0  0  0  0
    0.2146    1.4530    2.0189 H   0  0  0  0  0  0  0  0  0  0  0  0
   -3.3074    0.2661   -0.7694 H   0  0  0  0  0  0  0  0  0  0  0  0
  1  2  1  0  0  0  0
  2  3  1  0  0  0  0
  2  4  1  0  0  0  0
  4  5  1  0  0  0  0
  4  6  1  0  0  0  0
  6  7  1  0  0  0  0
  6  8  1  0  0  0  0
  8  9  1  0  0  0  0
  8 10  1  0  0  0  0
 10 11  1  0  0  0  0
  2 12  1  0  0  0  0
 10 12  1  0  0  0  0
 10 13  1  0  0  0  0
  8 14  1  0  0  0  0
  6 15  1  0  0  0  0
  4 16  1  0  0  0  0
  1 17  1  0  0  0  0
  1 18  1  0  0  0  0
  1 19  1  0  0  0  0
 13 20  1  0  0  0  0
 14 21  1  0  0  0  0
 15 22  1  0  0  0  0
 16 23  1  0  0  0  0
 17 24  1  0  0  0  0
M  END
