 xtb: 6.7.1 (edcfbbe)
          04032521533D

 15 15  0     0  0            999 V2000
    1.4351    0.0002   -0.5820 C   0  0  0  0  0  0  0  0  0  0  0  0
    0.9692    1.1783    0.2136 C   0  0  0  0  0  0  0  0  0  0  0  0
   -0.3296    1.4921    0.2931 C   0  0  0  0  0  0  0  0  0  0  0  0
   -1.4000    0.6755   -0.2073 C   0  0  0  0  0  0  0  0  0  0  0  0
   -1.3998   -0.6758   -0.2072 C   0  0  0  0  0  0  0  0  0  0  0  0
   -0.3292   -1.4922    0.2932 C   0  0  0  0  0  0  0  0  0  0  0  0
    0.9695   -1.1781    0.2135 C   0  0  0  0  0  0  0  0  0  0  0  0
    2.5153    0.0003   -0.7071 H   0  0  0  0  0  0  0  0  0  0  0  0
    0.9498    0.0001   -1.5620 H   0  0  0  0  0  0  0  0  0  0  0  0
    1.7122    1.7771    0.7207 H   0  0  0  0  0  0  0  0  0  0  0  0
   -0.6254    2.4098    0.7849 H   0  0  0  0  0  0  0  0  0  0  0  0
   -2.3145    1.1916   -0.4716 H   0  0  0  0  0  0  0  0  0  0  0  0
   -2.3140   -1.1921   -0.4718 H   0  0  0  0  0  0  0  0  0  0  0  0
   -0.6249   -2.4100    0.7850 H   0  0  0  0  0  0  0  0  0  0  0  0
    1.7127   -1.7768    0.7200 H   0  0  0  0  0  0  0  0  0  0  0  0
  1  2  1  0  0  0  0
  2  3  2  0  0  0  0
  3  4  1  0  0  0  0
  4  5  2  0  0  0  0
  5  6  1  0  0  0  0
  1  7  1  0  0  0  0
  6  7  2  0  0  0  0
  1  8  1  0  0  0  0
  1  9  1  0  0  0  0
  2 10  1  0  0  0  0
  3 11  1  0  0  0  0
  4 12  1  0  0  0  0
  5 13  1  0  0  0  0
  6 14  1  0  0  0  0
  7 15  1  0  0  0  0
M  END
