 xtb: 6.7.1 (edcfbbe)
          04062518003D

 24 24  0     0  0            999 V2000
   -2.3617   -1.0030    0.3397 C   0  0  0  0  0  0  0  0  0  0  0  0
   -1.0974   -0.2504    0.7983 C   0  0  0  0  0  0  0  0  0  0  0  0
   -1.3311    0.2116    1.7655 H   0  0  0  0  0  0  0  0  0  0  0  0
   -0.6773    0.8705   -0.1565 C   0  0  0  0  0  0  0  0  0  0  0  0
   -0.6738    0.5212   -1.2009 H   0  0  0  0  0  0  0  0  0  0  0  0
    0.7572    1.2835    0.1958 C   0  0  0  0  0  0  0  0  0  0  0  0
    0.8192    1.4865    1.2753 H   0  0  0  0  0  0  0  0  0  0  0  0
    1.7103    0.1224   -0.1225 C   0  0  0  0  0  0  0  0  0  0  0  0
    1.9714    0.1696   -1.1898 H   0  0  0  0  0  0  0  0  0  0  0  0
    0.9858   -1.2297    0.0983 C   0  0  0  0  0  0  0  0  0  0  0  0
    1.6933   -1.9559    0.5344 H   0  0  0  0  0  0  0  0  0  0  0  0
   -0.0280   -1.1614    1.0570 O   0  0  0  0  0  0  0  0  0  0  0  0
    0.5421   -1.6805   -1.1469 O   0  0  0  0  0  0  0  0  0  0  0  0
    2.8474    0.2781    0.6873 O   0  0  0  0  0  0  0  0  0  0  0  0
    1.0587    2.4407   -0.5435 O   0  0  0  0  0  0  0  0  0  0  0  0
   -1.5831    1.9313   -0.0051 O   0  0  0  0  0  0  0  0  0  0  0  0
   -2.2197   -1.6708   -0.8934 O   0  0  0  0  0  0  0  0  0  0  0  0
   -3.1875   -0.2877    0.3149 H   0  0  0  0  0  0  0  0  0  0  0  0
   -2.5733   -1.7791    1.0786 H   0  0  0  0  0  0  0  0  0  0  0  0
   -0.3126   -2.1469   -1.0430 H   0  0  0  0  0  0  0  0  0  0  0  0
    3.5239   -0.3698    0.4444 H   0  0  0  0  0  0  0  0  0  0  0  0
    1.9410    2.7537   -0.3011 H   0  0  0  0  0  0  0  0  0  0  0  0
   -1.1788    2.7234   -0.3942 H   0  0  0  0  0  0  0  0  0  0  0  0
   -2.3506   -1.0462   -1.6198 H   0  0  0  0  0  0  0  0  0  0  0  0
  1  2  1  0  0  0  0
  2  3  1  0  0  0  0
  2  4  1  0  0  0  0
  4  5  1  0  0  0  0
  4  6  1  0  0  0  0
  6  7  1  0  0  0  0
  6  8  1  0  0  0  0
  8  9  1  0  0  0  0
  8 10  1  0  0  0  0
 10 11  1  0  0  0  0
  2 12  1  0  0  0  0
 10 12  1  0  0  0  0
 10 13  1  0  0  0  0
  8 14  1  0  0  0  0
  6 15  1  0  0  0  0
  4 16  1  0  0  0  0
  1 17  1  0  0  0  0
  1 18  1  0  0  0  0
  1 19  1  0  0  0  0
 13 20  1  0  0  0  0
 14 21  1  0  0  0  0
 15 22  1  0  0  0  0
 16 23  1  0  0  0  0
 17 24  1  0  0  0  0
M  END
