 xtb: 6.7.1 (edcfbbe)
          04032521423D

  9  8  0     0  0            999 V2000
   -1.4487   -0.0916   -0.0000 C   0  0  0  0  0  0  0  0  0  0  0  0
    0.0518    0.0654   -0.0003 C   0  0  0  0  0  0  0  0  0  0  0  0
    0.5977    1.1667   -0.0000 O   0  0  0  0  0  0  0  0  0  0  0  0
    0.7580   -1.0722   -0.0000 N   0  0  0  0  0  0  0  0  0  0  0  0
   -1.7482   -1.1331   -0.0186 H   0  0  0  0  0  0  0  0  0  0  0  0
   -1.8493    0.3928    0.8871 H   0  0  0  0  0  0  0  0  0  0  0  0
   -1.8538    0.4260   -0.8661 H   0  0  0  0  0  0  0  0  0  0  0  0
    1.7641   -1.0215    0.0013 H   0  0  0  0  0  0  0  0  0  0  0  0
    0.3109   -1.9720    0.0007 H   0  0  0  0  0  0  0  0  0  0  0  0
  1  2  1  0  0  0  0
  2  3  2  0  0  0  0
  2  4  4  0  0  0  0
  1  5  1  0  0  0  0
  1  6  1  0  0  0  0
  1  7  1  0  0  0  0
  4  8  1  0  0  0  0
  4  9  1  0  0  0  0
M  END
