 xtb: 6.7.1 (edcfbbe)
          04062518003D

 24 24  0     0  0            999 V2000
   -2.4417   -1.0295   -0.3844 C   0  0  0  0  0  0  0  0  0  0  0  0
   -1.0806   -0.5561    0.1345 C   0  0  0  0  0  0  0  0  0  0  0  0
   -1.1297   -0.5606    1.2360 H   0  0  0  0  0  0  0  0  0  0  0  0
   -0.7310    0.8677   -0.3443 C   0  0  0  0  0  0  0  0  0  0  0  0
   -0.6710    0.8760   -1.4385 H   0  0  0  0  0  0  0  0  0  0  0  0
    0.6503    1.2543    0.2121 C   0  0  0  0  0  0  0  0  0  0  0  0
    0.5993    1.3041    1.3129 H   0  0  0  0  0  0  0  0  0  0  0  0
    1.6764    0.1794   -0.1705 C   0  0  0  0  0  0  0  0  0  0  0  0
    1.8044    0.1941   -1.2643 H   0  0  0  0  0  0  0  0  0  0  0  0
    1.1732   -1.2164    0.2516 C   0  0  0  0  0  0  0  0  0  0  0  0
    1.1362   -1.2566    1.3546 H   0  0  0  0  0  0  0  0  0  0  0  0
   -0.0955   -1.4753   -0.2962 O   0  0  0  0  0  0  0  0  0  0  0  0
    2.0416   -2.2129   -0.1551 O   0  0  0  0  0  0  0  0  0  0  0  0
    2.8884    0.4901    0.4717 O   0  0  0  0  0  0  0  0  0  0  0  0
    1.0138    2.5068   -0.3083 O   0  0  0  0  0  0  0  0  0  0  0  0
   -1.7278    1.7936   -0.0275 O   0  0  0  0  0  0  0  0  0  0  0  0
   -3.4176   -0.6554    0.5578 O   0  0  0  0  0  0  0  0  0  0  0  0
   -2.3938   -2.1209   -0.4916 H   0  0  0  0  0  0  0  0  0  0  0  0
   -2.6389   -0.5770   -1.3616 H   0  0  0  0  0  0  0  0  0  0  0  0
    1.8344   -2.4610   -1.0701 H   0  0  0  0  0  0  0  0  0  0  0  0
    3.5067   -0.2475    0.3568 H   0  0  0  0  0  0  0  0  0  0  0  0
    1.9181    2.7061   -0.0215 H   0  0  0  0  0  0  0  0  0  0  0  0
   -1.8470    1.8409    0.9322 H   0  0  0  0  0  0  0  0  0  0  0  0
   -4.2977   -0.8237    0.1937 H   0  0  0  0  0  0  0  0  0  0  0  0
  1  2  1  0  0  0  0
  2  3  1  0  0  0  0
  2  4  1  0  0  0  0
  4  5  1  0  0  0  0
  4  6  1  0  0  0  0
  6  7  1  0  0  0  0
  6  8  1  0  0  0  0
  8  9  1  0  0  0  0
  8 10  1  0  0  0  0
 10 11  1  0  0  0  0
  2 12  1  0  0  0  0
 10 12  1  0  0  0  0
 10 13  1  0  0  0  0
  8 14  1  0  0  0  0
  6 15  1  0  0  0  0
  4 16  1  0  0  0  0
  1 17  1  0  0  0  0
  1 18  1  0  0  0  0
  1 19  1  0  0  0  0
 13 20  1  0  0  0  0
 14 21  1  0  0  0  0
 15 22  1  0  0  0  0
 16 23  1  0  0  0  0
 17 24  1  0  0  0  0
M  END
