 xtb: 6.7.1 (edcfbbe)
          04032521453D

 12 12  0     0  0            999 V2000
    1.5323    1.1923    0.0000 C   0  0  0  0  0  0  0  0  0  0  0  0
    0.1502    1.2399   -0.0000 C   0  0  0  0  0  0  0  0  0  0  0  0
   -0.5526    0.0322   -0.0001 C   0  0  0  0  0  0  0  0  0  0  0  0
    0.1757   -1.1640   -0.0000 C   0  0  0  0  0  0  0  0  0  0  0  0
    1.4922   -1.1981    0.0000 N   0  0  0  0  0  0  0  0  0  0  0  0
    2.1541   -0.0497    0.0002 C   0  0  0  0  0  0  0  0  0  0  0  0
   -1.9620    0.0057   -0.0003 C   0  0  0  0  0  0  0  0  0  0  0  0
   -3.1099   -0.0244    0.0003 N   0  0  0  0  0  0  0  0  0  0  0  0
    2.1164    2.0974   -0.0001 H   0  0  0  0  0  0  0  0  0  0  0  0
   -0.3833    2.1783    0.0000 H   0  0  0  0  0  0  0  0  0  0  0  0
   -0.3302   -2.1195   -0.0003 H   0  0  0  0  0  0  0  0  0  0  0  0
    3.2311   -0.1378   -0.0007 H   0  0  0  0  0  0  0  0  0  0  0  0
  1  2  4  0  0  0  0
  2  3  4  0  0  0  0
  3  4  4  0  0  0  0
  4  5  4  0  0  0  0
  1  6  4  0  0  0  0
  5  6  4  0  0  0  0
  3  7  1  0  0  0  0
  7  8  3  0  0  0  0
  1  9  1  0  0  0  0
  2 10  1  0  0  0  0
  4 11  1  0  0  0  0
  6 12  1  0  0  0  0
M  END
