 xtb: 6.7.1 (edcfbbe)
          04062518003D

 24 24  0     0  0            999 V2000
   -2.5139   -0.7342   -0.1942 C   0  0  0  0  0  0  0  0  0  0  0  0
   -1.1937   -0.5403    0.5507 C   0  0  0  0  0  0  0  0  0  0  0  0
   -1.3165   -0.9035    1.5850 H   0  0  0  0  0  0  0  0  0  0  0  0
   -0.7551    0.9370    0.6685 C   0  0  0  0  0  0  0  0  0  0  0  0
   -1.6127    1.5833    0.4290 H   0  0  0  0  0  0  0  0  0  0  0  0
    0.3749    1.2833   -0.3200 C   0  0  0  0  0  0  0  0  0  0  0  0
    0.7862    2.2663   -0.0543 H   0  0  0  0  0  0  0  0  0  0  0  0
    1.5566    0.2910   -0.2140 C   0  0  0  0  0  0  0  0  0  0  0  0
    1.9355    0.1180   -1.2317 H   0  0  0  0  0  0  0  0  0  0  0  0
    1.0831   -1.0634    0.3421 C   0  0  0  0  0  0  0  0  0  0  0  0
    1.0854   -1.0124    1.4509 H   0  0  0  0  0  0  0  0  0  0  0  0
   -0.2241   -1.3420   -0.1005 O   0  0  0  0  0  0  0  0  0  0  0  0
    1.9300   -2.0540   -0.1203 O   0  0  0  0  0  0  0  0  0  0  0  0
    2.5437    0.8698    0.6004 O   0  0  0  0  0  0  0  0  0  0  0  0
   -0.0956    1.4070   -1.6335 O   0  0  0  0  0  0  0  0  0  0  0  0
   -0.3605    1.1253    2.0079 O   0  0  0  0  0  0  0  0  0  0  0  0
   -2.4344   -0.1216   -1.4604 O   0  0  0  0  0  0  0  0  0  0  0  0
   -3.3184   -0.2910    0.4043 H   0  0  0  0  0  0  0  0  0  0  0  0
   -2.6783   -1.8121   -0.2957 H   0  0  0  0  0  0  0  0  0  0  0  0
    1.5239   -2.9230    0.0236 H   0  0  0  0  0  0  0  0  0  0  0  0
    3.3255    0.2994    0.6109 H   0  0  0  0  0  0  0  0  0  0  0  0
   -0.7724    0.7260   -1.8056 H   0  0  0  0  0  0  0  0  0  0  0  0
   -0.0388    2.0293    2.1349 H   0  0  0  0  0  0  0  0  0  0  0  0
   -3.2371   -0.3126   -1.9658 H   0  0  0  0  0  0  0  0  0  0  0  0
  1  2  1  0  0  0  0
  2  3  1  0  0  0  0
  2  4  1  0  0  0  0
  4  5  1  0  0  0  0
  4  6  1  0  0  0  0
  6  7  1  0  0  0  0
  6  8  1  0  0  0  0
  8  9  1  0  0  0  0
  8 10  1  0  0  0  0
 10 11  1  0  0  0  0
  2 12  1  0  0  0  0
 10 12  1  0  0  0  0
 10 13  1  0  0  0  0
  8 14  1  0  0  0  0
  6 15  1  0  0  0  0
  4 16  1  0  0  0  0
  1 17  1  0  0  0  0
  1 18  1  0  0  0  0
  1 19  1  0  0  0  0
 13 20  1  0  0  0  0
 14 21  1  0  0  0  0
 15 22  1  0  0  0  0
 16 23  1  0  0  0  0
 17 24  1  0  0  0  0
M  END
