 xtb: 6.7.1 (edcfbbe)
          04032521383D

 11 10  0     0  0            999 V2000
   -2.5316    0.0760   -0.0000 C   0  0  0  0  0  0  0  0  0  0  0  0
   -1.1231   -0.5107    0.0001 C   0  0  0  0  0  0  0  0  0  0  0  0
   -0.0874    0.5997    0.0000 C   0  0  0  0  0  0  0  0  0  0  0  0
    1.5787   -0.0793   -0.0000 Cl  0  0  0  0  0  0  0  0  0  0  0  0
   -2.6891    0.6906   -0.8823 H   0  0  0  0  0  0  0  0  0  0  0  0
   -3.2664   -0.7235   -0.0002 H   0  0  0  0  0  0  0  0  0  0  0  0
   -2.6892    0.6908    0.8822 H   0  0  0  0  0  0  0  0  0  0  0  0
   -0.9827   -1.1369    0.8825 H   0  0  0  0  0  0  0  0  0  0  0  0
   -0.9827   -1.1367   -0.8824 H   0  0  0  0  0  0  0  0  0  0  0  0
   -0.1635    1.2187    0.8925 H   0  0  0  0  0  0  0  0  0  0  0  0
   -0.1634    1.2186   -0.8924 H   0  0  0  0  0  0  0  0  0  0  0  0
  1  2  1  0  0  0  0
  2  3  1  0  0  0  0
  3  4  1  0  0  0  0
  1  5  1  0  0  0  0
  1  6  1  0  0  0  0
  1  7  1  0  0  0  0
  2  8  1  0  0  0  0
  2  9  1  0  0  0  0
  3 10  1  0  0  0  0
  3 11  1  0  0  0  0
M  END
