 xtb: 6.7.1 (edcfbbe)
          04062518003D

 24 24  0     0  0            999 V2000
   -1.8117   -1.0533   -0.6806 C   0  0  0  0  0  0  0  0  0  0  0  0
   -1.0481   -0.4903    0.5282 C   0  0  0  0  0  0  0  0  0  0  0  0
   -1.7137   -0.5773    1.3956 H   0  0  0  0  0  0  0  0  0  0  0  0
   -0.7132    1.0010    0.3621 C   0  0  0  0  0  0  0  0  0  0  0  0
   -1.5607    1.4780   -0.1409 H   0  0  0  0  0  0  0  0  0  0  0  0
    0.5708    1.2448   -0.4672 C   0  0  0  0  0  0  0  0  0  0  0  0
    0.8276    2.3047   -0.3349 H   0  0  0  0  0  0  0  0  0  0  0  0
    1.7103    0.3691    0.0815 C   0  0  0  0  0  0  0  0  0  0  0  0
    2.5582    0.4108   -0.6162 H   0  0  0  0  0  0  0  0  0  0  0  0
    1.2568   -1.1004    0.1440 C   0  0  0  0  0  0  0  0  0  0  0  0
    2.0074   -1.6631    0.7180 H   0  0  0  0  0  0  0  0  0  0  0  0
    0.0797   -1.2895    0.8782 O   0  0  0  0  0  0  0  0  0  0  0  0
    1.1591   -1.5688   -1.1701 O   0  0  0  0  0  0  0  0  0  0  0  0
    2.0970    0.7414    1.3815 O   0  0  0  0  0  0  0  0  0  0  0  0
    0.3972    1.0573   -1.8489 O   0  0  0  0  0  0  0  0  0  0  0  0
   -0.5981    1.6369    1.6136 O   0  0  0  0  0  0  0  0  0  0  0  0
   -3.0945   -0.4686   -0.6781 O   0  0  0  0  0  0  0  0  0  0  0  0
   -1.8806   -2.1424   -0.5567 H   0  0  0  0  0  0  0  0  0  0  0  0
   -1.2853   -0.8234   -1.6119 H   0  0  0  0  0  0  0  0  0  0  0  0
    1.0576   -2.5323   -1.1782 H   0  0  0  0  0  0  0  0  0  0  0  0
    2.6021    1.5670    1.3474 H   0  0  0  0  0  0  0  0  0  0  0  0
    0.5917    0.1308   -2.0678 H   0  0  0  0  0  0  0  0  0  0  0  0
    0.1565    1.2436    2.0855 H   0  0  0  0  0  0  0  0  0  0  0  0
   -3.5846   -0.7741   -1.4544 H   0  0  0  0  0  0  0  0  0  0  0  0
  1  2  1  0  0  0  0
  2  3  1  0  0  0  0
  2  4  1  0  0  0  0
  4  5  1  0  0  0  0
  4  6  1  0  0  0  0
  6  7  1  0  0  0  0
  6  8  1  0  0  0  0
  8  9  1  0  0  0  0
  8 10  1  0  0  0  0
 10 11  1  0  0  0  0
  2 12  1  0  0  0  0
 10 12  1  0  0  0  0
 10 13  1  0  0  0  0
  8 14  1  0  0  0  0
  6 15  1  0  0  0  0
  4 16  1  0  0  0  0
  1 17  1  0  0  0  0
  1 18  1  0  0  0  0
  1 19  1  0  0  0  0
 13 20  1  0  0  0  0
 14 21  1  0  0  0  0
 15 22  1  0  0  0  0
 16 23  1  0  0  0  0
 17 24  1  0  0  0  0
M  END
