 xtb: 6.7.1 (edcfbbe)
          04062518003D

 24 24  0     0  0            999 V2000
   -2.2322   -1.1888    0.0983 C   0  0  0  0  0  0  0  0  0  0  0  0
   -0.8694   -0.5705    0.4569 C   0  0  0  0  0  0  0  0  0  0  0  0
   -0.8806   -0.2722    1.5174 H   0  0  0  0  0  0  0  0  0  0  0  0
   -0.5650    0.6658   -0.4052 C   0  0  0  0  0  0  0  0  0  0  0  0
   -0.5024    0.3746   -1.4595 H   0  0  0  0  0  0  0  0  0  0  0  0
    0.7874    1.2688    0.0002 C   0  0  0  0  0  0  0  0  0  0  0  0
    0.6361    1.8722    0.9104 H   0  0  0  0  0  0  0  0  0  0  0  0
    1.7985    0.1668    0.3914 C   0  0  0  0  0  0  0  0  0  0  0  0
    2.7697    0.4082   -0.0642 H   0  0  0  0  0  0  0  0  0  0  0  0
    1.3745   -1.2029   -0.1611 C   0  0  0  0  0  0  0  0  0  0  0  0
    2.0469   -1.9832    0.2338 H   0  0  0  0  0  0  0  0  0  0  0  0
    0.1028   -1.5975    0.2840 O   0  0  0  0  0  0  0  0  0  0  0  0
    1.4618   -1.1465   -1.5502 O   0  0  0  0  0  0  0  0  0  0  0  0
    1.8764    0.1582    1.7937 O   0  0  0  0  0  0  0  0  0  0  0  0
    1.2315    2.0694   -1.0612 O   0  0  0  0  0  0  0  0  0  0  0  0
   -1.6052    1.6081   -0.3300 O   0  0  0  0  0  0  0  0  0  0  0  0
   -3.3175   -0.4158    0.5324 O   0  0  0  0  0  0  0  0  0  0  0  0
   -2.3111   -2.1548    0.6018 H   0  0  0  0  0  0  0  0  0  0  0  0
   -2.2734   -1.3518   -0.9863 H   0  0  0  0  0  0  0  0  0  0  0  0
    1.2597   -2.0153   -1.9305 H   0  0  0  0  0  0  0  0  0  0  0  0
    2.5262   -0.4936    2.0943 H   0  0  0  0  0  0  0  0  0  0  0  0
    1.9986    2.5931   -0.7881 H   0  0  0  0  0  0  0  0  0  0  0  0
   -1.5408    2.0996    0.5028 H   0  0  0  0  0  0  0  0  0  0  0  0
   -3.2586    0.4506    0.0930 H   0  0  0  0  0  0  0  0  0  0  0  0
  1  2  1  0  0  0  0
  2  3  1  0  0  0  0
  2  4  1  0  0  0  0
  4  5  1  0  0  0  0
  4  6  1  0  0  0  0
  6  7  1  0  0  0  0
  6  8  1  0  0  0  0
  8  9  1  0  0  0  0
  8 10  1  0  0  0  0
 10 11  1  0  0  0  0
  2 12  1  0  0  0  0
 10 12  1  0  0  0  0
 10 13  1  0  0  0  0
  8 14  1  0  0  0  0
  6 15  1  0  0  0  0
  4 16  1  0  0  0  0
  1 17  1  0  0  0  0
  1 18  1  0  0  0  0
  1 19  1  0  0  0  0
 13 20  1  0  0  0  0
 14 21  1  0  0  0  0
 15 22  1  0  0  0  0
 16 23  1  0  0  0  0
 17 24  1  0  0  0  0
M  END
