 xtb: 6.7.1 (edcfbbe)
          04032522173D

 12 11  0     0  0            999 V2000
   -1.9562   -0.1492   -0.0016 C   0  0  0  0  0  0  0  0  0  0  0  0
   -0.5934    0.5313    0.0178 C   0  0  0  0  0  0  0  0  0  0  0  0
    0.5408   -0.4927   -0.0304 C   0  0  0  0  0  0  0  0  0  0  0  0
    1.8232    0.0944    0.0571 O   0  0  0  0  0  0  0  0  0  0  0  0
   -2.7490    0.5932    0.0271 H   0  0  0  0  0  0  0  0  0  0  0  0
   -2.0712   -0.7439   -0.9048 H   0  0  0  0  0  0  0  0  0  0  0  0
   -2.0662   -0.8062    0.8575 H   0  0  0  0  0  0  0  0  0  0  0  0
   -0.4863    1.1284    0.9254 H   0  0  0  0  0  0  0  0  0  0  0  0
   -0.5085    1.2033   -0.8395 H   0  0  0  0  0  0  0  0  0  0  0  0
    0.4745   -1.1661    0.8279 H   0  0  0  0  0  0  0  0  0  0  0  0
    0.4628   -1.0955   -0.9461 H   0  0  0  0  0  0  0  0  0  0  0  0
    1.9410    0.7050   -0.6838 H   0  0  0  0  0  0  0  0  0  0  0  0
  1  2  1  0  0  0  0
  2  3  1  0  0  0  0
  3  4  1  0  0  0  0
  1  5  1  0  0  0  0
  1  6  1  0  0  0  0
  1  7  1  0  0  0  0
  2  8  1  0  0  0  0
  2  9  1  0  0  0  0
  3 10  1  0  0  0  0
  3 11  1  0  0  0  0
  4 12  1  0  0  0  0
M  END
