 xtb: 6.7.1 (edcfbbe)
          04062518003D

 24 24  0     0  0            999 V2000
   -1.6835   -1.3572   -0.5547 C   0  0  0  0  0  0  0  0  0  0  0  0
   -1.1307   -0.5064    0.6075 C   0  0  0  0  0  0  0  0  0  0  0  0
   -1.8664   -0.5027    1.4206 H   0  0  0  0  0  0  0  0  0  0  0  0
   -0.8762    0.9543    0.1714 C   0  0  0  0  0  0  0  0  0  0  0  0
   -1.2401    1.0895   -0.8532 H   0  0  0  0  0  0  0  0  0  0  0  0
    0.6255    1.2696    0.2098 C   0  0  0  0  0  0  0  0  0  0  0  0
    0.9465    1.3828    1.2595 H   0  0  0  0  0  0  0  0  0  0  0  0
    1.4223    0.1147   -0.4036 C   0  0  0  0  0  0  0  0  0  0  0  0
    1.0792   -0.0527   -1.4351 H   0  0  0  0  0  0  0  0  0  0  0  0
    1.1816   -1.1641    0.4139 C   0  0  0  0  0  0  0  0  0  0  0  0
    2.0009   -1.2532    1.1421 H   0  0  0  0  0  0  0  0  0  0  0  0
    0.0184   -1.0971    1.2057 O   0  0  0  0  0  0  0  0  0  0  0  0
    1.1642   -2.2467   -0.4585 O   0  0  0  0  0  0  0  0  0  0  0  0
    2.8003    0.3754   -0.3860 O   0  0  0  0  0  0  0  0  0  0  0  0
    0.9335    2.4353   -0.5146 O   0  0  0  0  0  0  0  0  0  0  0  0
   -1.6004    1.8868    0.9381 O   0  0  0  0  0  0  0  0  0  0  0  0
   -2.8237   -0.7850   -1.1394 O   0  0  0  0  0  0  0  0  0  0  0  0
   -1.8885   -2.3682   -0.1833 H   0  0  0  0  0  0  0  0  0  0  0  0
   -0.9381   -1.4279   -1.3491 H   0  0  0  0  0  0  0  0  0  0  0  0
    1.2387   -3.0792    0.0325 H   0  0  0  0  0  0  0  0  0  0  0  0
    2.9467    1.2411   -0.8001 H   0  0  0  0  0  0  0  0  0  0  0  0
    0.3101    3.1338   -0.2658 H   0  0  0  0  0  0  0  0  0  0  0  0
   -1.3566    1.8056    1.8724 H   0  0  0  0  0  0  0  0  0  0  0  0
   -3.5538   -0.7848   -0.5040 H   0  0  0  0  0  0  0  0  0  0  0  0
  1  2  1  0  0  0  0
  2  3  1  0  0  0  0
  2  4  1  0  0  0  0
  4  5  1  0  0  0  0
  4  6  1  0  0  0  0
  6  7  1  0  0  0  0
  6  8  1  0  0  0  0
  8  9  1  0  0  0  0
  8 10  1  0  0  0  0
 10 11  1  0  0  0  0
  2 12  1  0  0  0  0
 10 12  1  0  0  0  0
 10 13  1  0  0  0  0
  8 14  1  0  0  0  0
  6 15  1  0  0  0  0
  4 16  1  0  0  0  0
  1 17  1  0  0  0  0
  1 18  1  0  0  0  0
  1 19  1  0  0  0  0
 13 20  1  0  0  0  0
 14 21  1  0  0  0  0
 15 22  1  0  0  0  0
 16 23  1  0  0  0  0
 17 24  1  0  0  0  0
M  END
