 xtb: 6.7.1 (edcfbbe)
          04062518003D

 24 24  0     0  0            999 V2000
   -2.0220   -1.4095   -0.1547 C   0  0  0  0  0  0  0  0  0  0  0  0
   -1.0341   -0.4849    0.5868 C   0  0  0  0  0  0  0  0  0  0  0  0
   -1.4978   -0.1566    1.5269 H   0  0  0  0  0  0  0  0  0  0  0  0
   -0.6479    0.7528   -0.2381 C   0  0  0  0  0  0  0  0  0  0  0  0
   -0.5860    0.4909   -1.2997 H   0  0  0  0  0  0  0  0  0  0  0  0
    0.7324    1.2541    0.2238 C   0  0  0  0  0  0  0  0  0  0  0  0
    0.7120    1.3909    1.3206 H   0  0  0  0  0  0  0  0  0  0  0  0
    1.7895    0.1977   -0.1198 C   0  0  0  0  0  0  0  0  0  0  0  0
    2.0411    0.2876   -1.1811 H   0  0  0  0  0  0  0  0  0  0  0  0
    1.2074   -1.2214    0.1107 C   0  0  0  0  0  0  0  0  0  0  0  0
    1.9677   -1.8200    0.6312 H   0  0  0  0  0  0  0  0  0  0  0  0
    0.1170   -1.2181    1.0045 O   0  0  0  0  0  0  0  0  0  0  0  0
    0.8806   -1.7693   -1.1249 O   0  0  0  0  0  0  0  0  0  0  0  0
    2.9948    0.3775    0.5708 O   0  0  0  0  0  0  0  0  0  0  0  0
    1.0558    2.4765   -0.3864 O   0  0  0  0  0  0  0  0  0  0  0  0
   -1.5925    1.7867   -0.1649 O   0  0  0  0  0  0  0  0  0  0  0  0
   -3.3014   -0.8513   -0.2925 O   0  0  0  0  0  0  0  0  0  0  0  0
   -2.0593   -2.3639    0.3856 H   0  0  0  0  0  0  0  0  0  0  0  0
   -1.6592   -1.5898   -1.1687 H   0  0  0  0  0  0  0  0  0  0  0  0
    0.7839   -2.7316   -1.0570 H   0  0  0  0  0  0  0  0  0  0  0  0
    2.8235    0.4939    1.5173 H   0  0  0  0  0  0  0  0  0  0  0  0
    0.2249    2.9201   -0.6302 H   0  0  0  0  0  0  0  0  0  0  0  0
   -1.7602    2.0193    0.7612 H   0  0  0  0  0  0  0  0  0  0  0  0
   -3.7381   -0.8125    0.5701 H   0  0  0  0  0  0  0  0  0  0  0  0
  1  2  1  0  0  0  0
  2  3  1  0  0  0  0
  2  4  1  0  0  0  0
  4  5  1  0  0  0  0
  4  6  1  0  0  0  0
  6  7  1  0  0  0  0
  6  8  1  0  0  0  0
  8  9  1  0  0  0  0
  8 10  1  0  0  0  0
 10 11  1  0  0  0  0
  2 12  1  0  0  0  0
 10 12  1  0  0  0  0
 10 13  1  0  0  0  0
  8 14  1  0  0  0  0
  6 15  1  0  0  0  0
  4 16  1  0  0  0  0
  1 17  1  0  0  0  0
  1 18  1  0  0  0  0
  1 19  1  0  0  0  0
 13 20  1  0  0  0  0
 14 21  1  0  0  0  0
 15 22  1  0  0  0  0
 16 23  1  0  0  0  0
 17 24  1  0  0  0  0
M  END
