 xtb: 6.7.1 (edcfbbe)
          04052508533D

 22 22  0     0  0            999 V2000
    3.3658   -0.1112    0.0126 C   0  0  0  0  0  0  0  0  0  0  0  0
    1.9484   -0.3508    0.1781 N   0  0  0  0  0  0  0  0  0  0  0  0
    1.6145   -1.5975    0.8274 C   0  0  0  0  0  0  0  0  0  0  0  0
    1.0582    0.5649   -0.2252 C   0  0  0  0  0  0  0  0  0  0  0  0
    1.3965    1.6537   -0.7039 O   0  0  0  0  0  0  0  0  0  0  0  0
   -0.3926    0.2268   -0.0916 C   0  0  0  0  0  0  0  0  0  0  0  0
   -0.9573   -0.8038   -0.8364 C   0  0  0  0  0  0  0  0  0  0  0  0
   -2.3172   -1.0479   -0.7610 C   0  0  0  0  0  0  0  0  0  0  0  0
   -3.1196   -0.2704    0.0582 C   0  0  0  0  0  0  0  0  0  0  0  0
   -2.5625    0.7634    0.7926 C   0  0  0  0  0  0  0  0  0  0  0  0
   -1.2048    1.0191    0.7109 C   0  0  0  0  0  0  0  0  0  0  0  0
    3.4955    0.8322   -0.5138 H   0  0  0  0  0  0  0  0  0  0  0  0
    3.8110   -0.9200   -0.5672 H   0  0  0  0  0  0  0  0  0  0  0  0
    3.8549   -0.0531    0.9858 H   0  0  0  0  0  0  0  0  0  0  0  0
    1.8260   -2.4377    0.1631 H   0  0  0  0  0  0  0  0  0  0  0  0
    0.5650   -1.6146    1.1059 H   0  0  0  0  0  0  0  0  0  0  0  0
    2.2237   -1.7023    1.7259 H   0  0  0  0  0  0  0  0  0  0  0  0
   -0.3323   -1.4036   -1.4808 H   0  0  0  0  0  0  0  0  0  0  0  0
   -2.7508   -1.8466   -1.3428 H   0  0  0  0  0  0  0  0  0  0  0  0
   -4.1792   -0.4654    0.1191 H   0  0  0  0  0  0  0  0  0  0  0  0
   -3.1853    1.3766    1.4256 H   0  0  0  0  0  0  0  0  0  0  0  0
   -0.7624    1.8323    1.2673 H   0  0  0  0  0  0  0  0  0  0  0  0
  1  2  1  0  0  0  0
  2  3  1  0  0  0  0
  2  4  4  0  0  0  0
  4  5  2  0  0  0  0
  4  6  1  0  0  0  0
  6  7  4  0  0  0  0
  7  8  4  0  0  0  0
  8  9  4  0  0  0  0
  9 10  4  0  0  0  0
  6 11  4  0  0  0  0
 10 11  4  0  0  0  0
  1 12  1  0  0  0  0
  1 13  1  0  0  0  0
  1 14  1  0  0  0  0
  3 15  1  0  0  0  0
  3 16  1  0  0  0  0
  3 17  1  0  0  0  0
  7 18  1  0  0  0  0
  8 19  1  0  0  0  0
  9 20  1  0  0  0  0
 10 21  1  0  0  0  0
 11 22  1  0  0  0  0
M  END
