 xtb: 6.7.1 (edcfbbe)
          04032521393D

 12 12  0     0  0            999 V2000
   -3.0418   -0.0000    0.0002 C   0  0  0  0  0  0  0  0  0  0  0  0
   -2.3501   -1.2001    0.0002 C   0  0  0  0  0  0  0  0  0  0  0  0
   -0.9651   -1.2085   -0.0001 C   0  0  0  0  0  0  0  0  0  0  0  0
   -0.2931    0.0000   -0.0002 C   0  0  0  0  0  0  0  0  0  0  0  0
   -0.9651    1.2085   -0.0000 C   0  0  0  0  0  0  0  0  0  0  0  0
   -2.3501    1.2001   -0.0001 C   0  0  0  0  0  0  0  0  0  0  0  0
    1.6332   -0.0000    0.0000 Br  0  0  0  0  0  0  0  0  0  0  0  0
   -4.1202   -0.0000   -0.0000 H   0  0  0  0  0  0  0  0  0  0  0  0
   -2.8842   -2.1371   -0.0003 H   0  0  0  0  0  0  0  0  0  0  0  0
   -0.4167   -2.1373   -0.0008 H   0  0  0  0  0  0  0  0  0  0  0  0
   -0.4167    2.1373   -0.0004 H   0  0  0  0  0  0  0  0  0  0  0  0
   -2.8842    2.1371   -0.0002 H   0  0  0  0  0  0  0  0  0  0  0  0
  1  2  4  0  0  0  0
  2  3  4  0  0  0  0
  3  4  4  0  0  0  0
  4  5  4  0  0  0  0
  1  6  4  0  0  0  0
  5  6  4  0  0  0  0
  4  7  1  0  0  0  0
  1  8  1  0  0  0  0
  2  9  1  0  0  0  0
  3 10  1  0  0  0  0
  5 11  1  0  0  0  0
  6 12  1  0  0  0  0
M  END
