 xtb: 6.7.1 (edcfbbe)
          04032521523D

 25 27  0     0  0            999 V2000
    1.5789    1.6336    0.8425 C   0  0  0  0  0  0  0  0  0  0  0  0
    0.2789    0.8826    1.1965 C   0  0  0  0  0  0  0  0  0  0  0  0
   -0.0804    1.2684    2.1524 H   0  0  0  0  0  0  0  0  0  0  0  0
    0.3129   -0.6747    1.2799 C   0  0  0  0  0  0  0  0  0  0  0  0
   -0.0696   -0.9895    2.2534 H   0  0  0  0  0  0  0  0  0  0  0  0
    1.6500   -1.4004    1.0926 C   0  0  0  0  0  0  0  0  0  0  0  0
    2.4355   -0.8734    0.0520 O   0  0  0  0  0  0  0  0  0  0  0  0
    3.6557    0.1473    0.5740 S   0  0  0  0  0  0  0  0  0  0  0  0
    4.4504   -0.5672    1.5411 O   0  0  0  0  0  0  0  0  0  0  0  0
    2.6959    1.1112    1.5252 O   0  0  0  0  0  0  0  0  0  0  0  0
   -0.7365   -1.0898    0.2115 C   0  0  0  0  0  0  0  0  0  0  0  0
   -0.2032   -0.6922   -1.1494 C   0  0  0  0  0  0  0  0  0  0  0  0
   -0.2603    0.6453   -1.2151 C   0  0  0  0  0  0  0  0  0  0  0  0
   -0.8084    1.1360    0.1131 C   0  0  0  0  0  0  0  0  0  0  0  0
   -1.8139    0.0011    0.4046 C   0  0  0  0  0  0  0  0  0  0  0  0
   -3.1267   -0.0925   -0.7847 Cl  0  0  0  0  0  0  0  0  0  0  0  0
   -2.5326    0.0496    2.0080 Cl  0  0  0  0  0  0  0  0  0  0  0  0
   -1.4606    2.7622    0.0990 Cl  0  0  0  0  0  0  0  0  0  0  0  0
    0.2112    1.6692   -2.4780 Cl  0  0  0  0  0  0  0  0  0  0  0  0
    0.3783   -1.7949   -2.2864 Cl  0  0  0  0  0  0  0  0  0  0  0  0
   -1.2911   -2.7487    0.3421 Cl  0  0  0  0  0  0  0  0  0  0  0  0
    1.4690    2.6791    1.1386 H   0  0  0  0  0  0  0  0  0  0  0  0
    1.7650    1.5860   -0.2330 H   0  0  0  0  0  0  0  0  0  0  0  0
    2.2239   -1.3542    2.0252 H   0  0  0  0  0  0  0  0  0  0  0  0
    1.4499   -2.4513    0.8643 H   0  0  0  0  0  0  0  0  0  0  0  0
  1  2  1  0  0  0  0
  2  3  1  0  0  0  0
  2  4  1  0  0  0  0
  4  5  1  0  0  0  0
  4  6  1  0  0  0  0
  6  7  1  0  0  0  0
  7  8  1  0  0  0  0
  8  9  2  0  0  0  0
  1 10  1  0  0  0  0
  8 10  1  0  0  0  0
  4 11  1  0  0  0  0
 11 12  1  0  0  0  0
 12 13  2  0  0  0  0
  2 14  1  0  0  0  0
 13 14  1  0  0  0  0
 11 15  1  0  0  0  0
 14 15  1  0  0  0  0
 15 16  1  0  0  0  0
 15 17  1  0  0  0  0
 14 18  1  0  0  0  0
 13 19  1  0  0  0  0
 12 20  1  0  0  0  0
 11 21  1  0  0  0  0
  1 22  1  0  0  0  0
  1 23  1  0  0  0  0
  6 24  1  0  0  0  0
  6 25  1  0  0  0  0
M  END
