 xtb: 6.7.1 (edcfbbe)
          04062518003D

 24 24  0     0  0            999 V2000
   -1.8443   -0.6147   -1.0946 C   0  0  0  0  0  0  0  0  0  0  0  0
   -1.2409   -0.5598    0.3273 C   0  0  0  0  0  0  0  0  0  0  0  0
   -2.0237   -0.8935    1.0228 H   0  0  0  0  0  0  0  0  0  0  0  0
   -0.7967    0.8564    0.7160 C   0  0  0  0  0  0  0  0  0  0  0  0
   -1.6107    1.5534    0.4739 H   0  0  0  0  0  0  0  0  0  0  0  0
    0.4332    1.3157   -0.0874 C   0  0  0  0  0  0  0  0  0  0  0  0
    1.0025    1.9946    0.5630 H   0  0  0  0  0  0  0  0  0  0  0  0
    1.3552    0.1342   -0.4308 C   0  0  0  0  0  0  0  0  0  0  0  0
    1.1096   -0.2352   -1.4405 H   0  0  0  0  0  0  0  0  0  0  0  0
    1.1162   -1.0122    0.5676 C   0  0  0  0  0  0  0  0  0  0  0  0
    1.3128   -0.6428    1.5871 H   0  0  0  0  0  0  0  0  0  0  0  0
   -0.1897   -1.5171    0.4480 O   0  0  0  0  0  0  0  0  0  0  0  0
    2.0012   -2.0572    0.3463 O   0  0  0  0  0  0  0  0  0  0  0  0
    2.6912    0.5668   -0.3884 O   0  0  0  0  0  0  0  0  0  0  0  0
   -0.0235    1.9828   -1.2376 O   0  0  0  0  0  0  0  0  0  0  0  0
   -0.4659    0.9487    2.0819 O   0  0  0  0  0  0  0  0  0  0  0  0
   -3.1481   -0.0900   -1.1349 O   0  0  0  0  0  0  0  0  0  0  0  0
   -1.9281   -1.6671   -1.3761 H   0  0  0  0  0  0  0  0  0  0  0  0
   -1.1934   -0.1003   -1.8060 H   0  0  0  0  0  0  0  0  0  0  0  0
    1.6139   -2.6675   -0.3012 H   0  0  0  0  0  0  0  0  0  0  0  0
    3.2652   -0.2095   -0.2883 H   0  0  0  0  0  0  0  0  0  0  0  0
    0.7242    2.4165   -1.6732 H   0  0  0  0  0  0  0  0  0  0  0  0
   -1.2527    0.7860    2.6231 H   0  0  0  0  0  0  0  0  0  0  0  0
   -3.1105    0.8742   -1.1910 H   0  0  0  0  0  0  0  0  0  0  0  0
  1  2  1  0  0  0  0
  2  3  1  0  0  0  0
  2  4  1  0  0  0  0
  4  5  1  0  0  0  0
  4  6  1  0  0  0  0
  6  7  1  0  0  0  0
  6  8  1  0  0  0  0
  8  9  1  0  0  0  0
  8 10  1  0  0  0  0
 10 11  1  0  0  0  0
  2 12  1  0  0  0  0
 10 12  1  0  0  0  0
 10 13  1  0  0  0  0
  8 14  1  0  0  0  0
  6 15  1  0  0  0  0
  4 16  1  0  0  0  0
  1 17  1  0  0  0  0
  1 18  1  0  0  0  0
  1 19  1  0  0  0  0
 13 20  1  0  0  0  0
 14 21  1  0  0  0  0
 15 22  1  0  0  0  0
 16 23  1  0  0  0  0
 17 24  1  0  0  0  0
M  END
