 xtb: 6.7.1 (edcfbbe)
          04062518003D

 24 24  0     0  0            999 V2000
   -2.2663   -0.9453    0.7725 C   0  0  0  0  0  0  0  0  0  0  0  0
   -0.8093   -0.4432    0.7600 C   0  0  0  0  0  0  0  0  0  0  0  0
   -0.5320   -0.1483    1.7827 H   0  0  0  0  0  0  0  0  0  0  0  0
   -0.6166    0.7523   -0.1885 C   0  0  0  0  0  0  0  0  0  0  0  0
   -0.7710    0.3984   -1.2147 H   0  0  0  0  0  0  0  0  0  0  0  0
    0.8244    1.2852   -0.0688 C   0  0  0  0  0  0  0  0  0  0  0  0
    0.8673    2.0404    0.7249 H   0  0  0  0  0  0  0  0  0  0  0  0
    1.7947    0.1526    0.3363 C   0  0  0  0  0  0  0  0  0  0  0  0
    2.7608    0.3555   -0.1458 H   0  0  0  0  0  0  0  0  0  0  0  0
    1.2638   -1.1878   -0.1982 C   0  0  0  0  0  0  0  0  0  0  0  0
    1.9388   -2.0114    0.0862 H   0  0  0  0  0  0  0  0  0  0  0  0
    0.0264   -1.5318    0.3656 O   0  0  0  0  0  0  0  0  0  0  0  0
    1.1993   -1.0718   -1.5894 O   0  0  0  0  0  0  0  0  0  0  0  0
    1.9132    0.1503    1.7349 O   0  0  0  0  0  0  0  0  0  0  0  0
    1.2463    1.9390   -1.2345 O   0  0  0  0  0  0  0  0  0  0  0  0
   -1.5911    1.7433    0.0144 O   0  0  0  0  0  0  0  0  0  0  0  0
   -2.9029   -0.9057   -0.4781 O   0  0  0  0  0  0  0  0  0  0  0  0
   -2.8311   -0.3649    1.5097 H   0  0  0  0  0  0  0  0  0  0  0  0
   -2.2521   -1.9940    1.0752 H   0  0  0  0  0  0  0  0  0  0  0  0
    0.8685   -1.8985   -1.9733 H   0  0  0  0  0  0  0  0  0  0  0  0
    2.6128   -0.4585    2.0126 H   0  0  0  0  0  0  0  0  0  0  0  0
    1.2499    1.3042   -1.9677 H   0  0  0  0  0  0  0  0  0  0  0  0
   -1.4073    2.2275    0.8318 H   0  0  0  0  0  0  0  0  0  0  0  0
   -3.0482    0.0215   -0.7201 H   0  0  0  0  0  0  0  0  0  0  0  0
  1  2  1  0  0  0  0
  2  3  1  0  0  0  0
  2  4  1  0  0  0  0
  4  5  1  0  0  0  0
  4  6  1  0  0  0  0
  6  7  1  0  0  0  0
  6  8  1  0  0  0  0
  8  9  1  0  0  0  0
  8 10  1  0  0  0  0
 10 11  1  0  0  0  0
  2 12  1  0  0  0  0
 10 12  1  0  0  0  0
 10 13  1  0  0  0  0
  8 14  1  0  0  0  0
  6 15  1  0  0  0  0
  4 16  1  0  0  0  0
  1 17  1  0  0  0  0
  1 18  1  0  0  0  0
  1 19  1  0  0  0  0
 13 20  1  0  0  0  0
 14 21  1  0  0  0  0
 15 22  1  0  0  0  0
 16 23  1  0  0  0  0
 17 24  1  0  0  0  0
M  END
