 xtb: 6.7.1 (edcfbbe)
          04062511443D

 31 31  0     0  0            999 V2000
    3.4218    0.6744    0.2301 C   0  0  0  0  0  0  0  0  0  0  0  0
    2.1848    0.1926   -0.5256 C   0  0  0  0  0  0  0  0  0  0  0  0
    2.4942   -0.0889   -1.5379 H   0  0  0  0  0  0  0  0  0  0  0  0
    1.1263    1.3024   -0.6395 C   0  0  0  0  0  0  0  0  0  0  0  0
    0.1322    1.2551    0.5173 C   0  0  0  0  0  0  0  0  0  0  0  0
   -0.6794   -0.0522    0.5443 C   0  0  0  0  0  0  0  0  0  0  0  0
   -0.7890   -0.3569    1.5934 H   0  0  0  0  0  0  0  0  0  0  0  0
    0.1012   -1.1849   -0.1489 C   0  0  0  0  0  0  0  0  0  0  0  0
   -0.0445   -1.1478   -1.2327 H   0  0  0  0  0  0  0  0  0  0  0  0
    1.5919   -1.0440    0.1639 C   0  0  0  0  0  0  0  0  0  0  0  0
   -0.4004   -2.4584    0.2137 O   0  0  0  0  0  0  0  0  0  0  0  0
   -2.1131    0.0560   -0.0150 C   0  0  0  0  0  0  0  0  0  0  0  0
   -3.0240    0.8006    0.9613 C   0  0  0  0  0  0  0  0  0  0  0  0
   -2.1951    0.7034   -1.3957 C   0  0  0  0  0  0  0  0  0  0  0  0
    3.9060    1.4858   -0.3082 H   0  0  0  0  0  0  0  0  0  0  0  0
    3.1490    1.0327    1.2200 H   0  0  0  0  0  0  0  0  0  0  0  0
    4.1369   -0.1372    0.3430 H   0  0  0  0  0  0  0  0  0  0  0  0
    1.6219    2.2747   -0.6519 H   0  0  0  0  0  0  0  0  0  0  0  0
    0.5864    1.1993   -1.5803 H   0  0  0  0  0  0  0  0  0  0  0  0
    0.6846    1.3569    1.4530 H   0  0  0  0  0  0  0  0  0  0  0  0
   -0.5421    2.1087    0.4529 H   0  0  0  0  0  0  0  0  0  0  0  0
    1.7146   -0.9604    1.2466 H   0  0  0  0  0  0  0  0  0  0  0  0
    2.1151   -1.9445   -0.1632 H   0  0  0  0  0  0  0  0  0  0  0  0
   -0.2648   -2.5883    1.1630 H   0  0  0  0  0  0  0  0  0  0  0  0
   -2.4810   -0.9739   -0.1045 H   0  0  0  0  0  0  0  0  0  0  0  0
   -3.0283    0.3140    1.9340 H   0  0  0  0  0  0  0  0  0  0  0  0
   -4.0436    0.8180    0.5842 H   0  0  0  0  0  0  0  0  0  0  0  0
   -2.6933    1.8281    1.0931 H   0  0  0  0  0  0  0  0  0  0  0  0
   -1.5868    0.1661   -2.1186 H   0  0  0  0  0  0  0  0  0  0  0  0
   -1.8690    1.7395   -1.3640 H   0  0  0  0  0  0  0  0  0  0  0  0
   -3.2246    0.6838   -1.7465 H   0  0  0  0  0  0  0  0  0  0  0  0
  1  2  1  0  0  0  0
  2  3  1  0  0  0  0
  2  4  1  0  0  0  0
  4  5  1  0  0  0  0
  5  6  1  0  0  0  0
  6  7  1  0  0  0  0
  6  8  1  0  0  0  0
  8  9  1  0  0  0  0
  2 10  1  0  0  0  0
  8 10  1  0  0  0  0
  8 11  1  0  0  0  0
  6 12  1  0  0  0  0
 12 13  1  0  0  0  0
 12 14  1  0  0  0  0
  1 15  1  0  0  0  0
  1 16  1  0  0  0  0
  1 17  1  0  0  0  0
  4 18  1  0  0  0  0
  4 19  1  0  0  0  0
  5 20  1  0  0  0  0
  5 21  1  0  0  0  0
 10 22  1  0  0  0  0
 10 23  1  0  0  0  0
 11 24  1  0  0  0  0
 12 25  1  0  0  0  0
 13 26  1  0  0  0  0
 13 27  1  0  0  0  0
 13 28  1  0  0  0  0
 14 29  1  0  0  0  0
 14 30  1  0  0  0  0
 14 31  1  0  0  0  0
M  END
