 xtb: 6.7.1 (edcfbbe)
          04062518003D

 24 24  0     0  0            999 V2000
   -2.5618   -0.8668    0.2869 C   0  0  0  0  0  0  0  0  0  0  0  0
   -1.1306   -0.4300    0.6325 C   0  0  0  0  0  0  0  0  0  0  0  0
   -1.0183   -0.3787    1.7276 H   0  0  0  0  0  0  0  0  0  0  0  0
   -0.8238    0.9599    0.0354 C   0  0  0  0  0  0  0  0  0  0  0  0
   -1.0685    0.9521   -1.0321 H   0  0  0  0  0  0  0  0  0  0  0  0
    0.6653    1.2891    0.2036 C   0  0  0  0  0  0  0  0  0  0  0  0
    0.8868    1.4144    1.2787 H   0  0  0  0  0  0  0  0  0  0  0  0
    1.5315    0.1358   -0.3151 C   0  0  0  0  0  0  0  0  0  0  0  0
    1.3852    0.0320   -1.4001 H   0  0  0  0  0  0  0  0  0  0  0  0
    1.0965   -1.1789    0.3485 C   0  0  0  0  0  0  0  0  0  0  0  0
    1.2761   -1.1020    1.4426 H   0  0  0  0  0  0  0  0  0  0  0  0
   -0.2680   -1.4291    0.1183 O   0  0  0  0  0  0  0  0  0  0  0  0
    1.8321   -2.2050   -0.2089 O   0  0  0  0  0  0  0  0  0  0  0  0
    2.8689    0.4426   -0.0149 O   0  0  0  0  0  0  0  0  0  0  0  0
    0.9450    2.4816   -0.4816 O   0  0  0  0  0  0  0  0  0  0  0  0
   -1.6536    1.9364    0.6024 O   0  0  0  0  0  0  0  0  0  0  0  0
   -2.7305   -1.0818   -1.0885 O   0  0  0  0  0  0  0  0  0  0  0  0
   -3.2501   -0.0668    0.5638 H   0  0  0  0  0  0  0  0  0  0  0  0
   -2.8029   -1.7758    0.8516 H   0  0  0  0  0  0  0  0  0  0  0  0
    1.4653   -3.0616    0.0602 H   0  0  0  0  0  0  0  0  0  0  0  0
    3.4347   -0.2854   -0.3119 H   0  0  0  0  0  0  0  0  0  0  0  0
    1.9034    2.6271   -0.4629 H   0  0  0  0  0  0  0  0  0  0  0  0
   -1.3377    2.1705    1.4876 H   0  0  0  0  0  0  0  0  0  0  0  0
   -2.0786   -1.7396   -1.3732 H   0  0  0  0  0  0  0  0  0  0  0  0
  1  2  1  0  0  0  0
  2  3  1  0  0  0  0
  2  4  1  0  0  0  0
  4  5  1  0  0  0  0
  4  6  1  0  0  0  0
  6  7  1  0  0  0  0
  6  8  1  0  0  0  0
  8  9  1  0  0  0  0
  8 10  1  0  0  0  0
 10 11  1  0  0  0  0
  2 12  1  0  0  0  0
 10 12  1  0  0  0  0
 10 13  1  0  0  0  0
  8 14  1  0  0  0  0
  6 15  1  0  0  0  0
  4 16  1  0  0  0  0
  1 17  1  0  0  0  0
  1 18  1  0  0  0  0
  1 19  1  0  0  0  0
 13 20  1  0  0  0  0
 14 21  1  0  0  0  0
 15 22  1  0  0  0  0
 16 23  1  0  0  0  0
 17 24  1  0  0  0  0
M  END
