 xtb: 6.7.1 (edcfbbe)
          04062511443D

 31 31  0     0  0            999 V2000
    3.4221    0.6718    0.2278 C   0  0  0  0  0  0  0  0  0  0  0  0
    2.1785    0.2089   -0.5288 C   0  0  0  0  0  0  0  0  0  0  0  0
    2.4797   -0.0470   -1.5506 H   0  0  0  0  0  0  0  0  0  0  0  0
    1.1197    1.3209   -0.6054 C   0  0  0  0  0  0  0  0  0  0  0  0
    0.1293    1.2362    0.5522 C   0  0  0  0  0  0  0  0  0  0  0  0
   -0.6809   -0.0708    0.5377 C   0  0  0  0  0  0  0  0  0  0  0  0
   -0.7970   -0.4205    1.5705 H   0  0  0  0  0  0  0  0  0  0  0  0
    0.1021   -1.1885   -0.1705 C   0  0  0  0  0  0  0  0  0  0  0  0
   -0.0476   -1.1307   -1.2592 H   0  0  0  0  0  0  0  0  0  0  0  0
    1.5939   -1.0455    0.1350 C   0  0  0  0  0  0  0  0  0  0  0  0
   -0.4204   -2.4210    0.2995 O   0  0  0  0  0  0  0  0  0  0  0  0
   -2.1106    0.0544   -0.0286 C   0  0  0  0  0  0  0  0  0  0  0  0
   -3.0225    0.7820    0.9591 C   0  0  0  0  0  0  0  0  0  0  0  0
   -2.1857    0.7317   -1.3956 C   0  0  0  0  0  0  0  0  0  0  0  0
    3.9008    1.4975   -0.2933 H   0  0  0  0  0  0  0  0  0  0  0  0
    3.1568    1.0032    1.2289 H   0  0  0  0  0  0  0  0  0  0  0  0
    4.1390   -0.1416    0.3142 H   0  0  0  0  0  0  0  0  0  0  0  0
    1.6148    2.2934   -0.5889 H   0  0  0  0  0  0  0  0  0  0  0  0
    0.5768    1.2472   -1.5474 H   0  0  0  0  0  0  0  0  0  0  0  0
    0.6830    1.3078    1.4897 H   0  0  0  0  0  0  0  0  0  0  0  0
   -0.5470    2.0896    0.5163 H   0  0  0  0  0  0  0  0  0  0  0  0
    1.7143   -0.9922    1.2188 H   0  0  0  0  0  0  0  0  0  0  0  0
    2.1310   -1.9310   -0.2122 H   0  0  0  0  0  0  0  0  0  0  0  0
    0.0526   -3.1499   -0.1235 H   0  0  0  0  0  0  0  0  0  0  0  0
   -2.4821   -0.9719   -0.1339 H   0  0  0  0  0  0  0  0  0  0  0  0
   -3.0293    0.2729    1.9199 H   0  0  0  0  0  0  0  0  0  0  0  0
   -4.0409    0.8100    0.5791 H   0  0  0  0  0  0  0  0  0  0  0  0
   -2.6898    1.8054    1.1149 H   0  0  0  0  0  0  0  0  0  0  0  0
   -1.8656    1.7685   -1.3363 H   0  0  0  0  0  0  0  0  0  0  0  0
   -3.2128    0.7152   -1.7538 H   0  0  0  0  0  0  0  0  0  0  0  0
   -1.5691    0.2163   -2.1274 H   0  0  0  0  0  0  0  0  0  0  0  0
  1  2  1  0  0  0  0
  2  3  1  0  0  0  0
  2  4  1  0  0  0  0
  4  5  1  0  0  0  0
  5  6  1  0  0  0  0
  6  7  1  0  0  0  0
  6  8  1  0  0  0  0
  8  9  1  0  0  0  0
  2 10  1  0  0  0  0
  8 10  1  0  0  0  0
  8 11  1  0  0  0  0
  6 12  1  0  0  0  0
 12 13  1  0  0  0  0
 12 14  1  0  0  0  0
  1 15  1  0  0  0  0
  1 16  1  0  0  0  0
  1 17  1  0  0  0  0
  4 18  1  0  0  0  0
  4 19  1  0  0  0  0
  5 20  1  0  0  0  0
  5 21  1  0  0  0  0
 10 22  1  0  0  0  0
 10 23  1  0  0  0  0
 11 24  1  0  0  0  0
 12 25  1  0  0  0  0
 13 26  1  0  0  0  0
 13 27  1  0  0  0  0
 13 28  1  0  0  0  0
 14 29  1  0  0  0  0
 14 30  1  0  0  0  0
 14 31  1  0  0  0  0
M  END
