 xtb: 6.7.1 (edcfbbe)
          04062520053D

 27 27  0     0  0            999 V2000
   -2.7688    0.9191    1.2778 C   0  0  0  0  0  0  0  0  0  0  0  0
   -1.6633    0.4908    0.3694 C   0  0  0  0  0  0  0  0  0  0  0  0
   -0.8711    1.3140   -0.3051 C   0  0  0  0  0  0  0  0  0  0  0  0
    0.1885    0.7760   -1.2112 C   0  0  0  0  0  0  0  0  0  0  0  0
    0.9643   -0.4168   -0.5952 C   0  0  0  0  0  0  0  0  0  0  0  0
    1.2563   -1.0709   -1.4216 H   0  0  0  0  0  0  0  0  0  0  0  0
    0.1067   -1.2277    0.3946 C   0  0  0  0  0  0  0  0  0  0  0  0
   -1.4014   -0.9894    0.2227 C   0  0  0  0  0  0  0  0  0  0  0  0
   -1.9378   -1.5410    1.0124 H   0  0  0  0  0  0  0  0  0  0  0  0
   -1.8870   -1.4141   -1.0424 O   0  0  0  0  0  0  0  0  0  0  0  0
    2.2291    0.0867    0.0568 C   0  0  0  0  0  0  0  0  0  0  0  0
    3.4221   -0.2412   -0.4161 C   0  0  0  0  0  0  0  0  0  0  0  0
    2.0755    0.9941    1.2424 C   0  0  0  0  0  0  0  0  0  0  0  0
   -2.5869    0.5604    2.2906 H   0  0  0  0  0  0  0  0  0  0  0  0
   -3.7122    0.4945    0.9370 H   0  0  0  0  0  0  0  0  0  0  0  0
   -2.8539    2.0021    1.2954 H   0  0  0  0  0  0  0  0  0  0  0  0
   -0.9973    2.3858   -0.2479 H   0  0  0  0  0  0  0  0  0  0  0  0
   -0.2998    0.4266   -2.1245 H   0  0  0  0  0  0  0  0  0  0  0  0
    0.8950    1.5587   -1.4909 H   0  0  0  0  0  0  0  0  0  0  0  0
    0.3284   -2.2908    0.2828 H   0  0  0  0  0  0  0  0  0  0  0  0
    0.3500   -0.9466    1.4188 H   0  0  0  0  0  0  0  0  0  0  0  0
   -1.6653   -2.3470   -1.1639 H   0  0  0  0  0  0  0  0  0  0  0  0
    4.3307    0.1321    0.0262 H   0  0  0  0  0  0  0  0  0  0  0  0
    3.5423   -0.8975   -1.2615 H   0  0  0  0  0  0  0  0  0  0  0  0
    1.1486    1.5585    1.1769 H   0  0  0  0  0  0  0  0  0  0  0  0
    2.0541    0.4134    2.1642 H   0  0  0  0  0  0  0  0  0  0  0  0
    2.9137    1.6830    1.3064 H   0  0  0  0  0  0  0  0  0  0  0  0
  1  2  1  0  0  0  0
  2  3  2  0  0  0  0
  3  4  1  0  0  0  0
  4  5  1  0  0  0  0
  5  6  1  0  0  0  0
  5  7  1  0  0  0  0
  2  8  1  0  0  0  0
  7  8  1  0  0  0  0
  8  9  1  0  0  0  0
  8 10  1  0  0  0  0
  5 11  1  0  0  0  0
 11 12  2  0  0  0  0
 11 13  1  0  0  0  0
  1 14  1  0  0  0  0
  1 15  1  0  0  0  0
  1 16  1  0  0  0  0
  3 17  1  0  0  0  0
  4 18  1  0  0  0  0
  4 19  1  0  0  0  0
  7 20  1  0  0  0  0
  7 21  1  0  0  0  0
 10 22  1  0  0  0  0
 12 23  1  0  0  0  0
 12 24  1  0  0  0  0
 13 25  1  0  0  0  0
 13 26  1  0  0  0  0
 13 27  1  0  0  0  0
M  END
