 xtb: 6.7.1 (edcfbbe)
          04052503093D

 19 19  0     0  0            999 V2000
   -2.4465    1.1098    0.4979 C   0  0  0  0  0  0  0  0  0  0  0  0
   -1.7174   -0.0919   -0.0294 C   0  0  0  0  0  0  0  0  0  0  0  0
   -2.3709   -1.1505   -0.4977 C   0  0  0  0  0  0  0  0  0  0  0  0
   -0.2450   -0.0384   -0.0179 C   0  0  0  0  0  0  0  0  0  0  0  0
    0.5046   -1.1838    0.2481 C   0  0  0  0  0  0  0  0  0  0  0  0
    1.8861   -1.1409    0.2617 C   0  0  0  0  0  0  0  0  0  0  0  0
    2.5491    0.0486    0.0085 C   0  0  0  0  0  0  0  0  0  0  0  0
    1.8174    1.1947   -0.2528 C   0  0  0  0  0  0  0  0  0  0  0  0
    0.4351    1.1539   -0.2602 C   0  0  0  0  0  0  0  0  0  0  0  0
   -2.4178    1.9196   -0.2299 H   0  0  0  0  0  0  0  0  0  0  0  0
   -3.4875    0.8667    0.6925 H   0  0  0  0  0  0  0  0  0  0  0  0
   -1.9834    1.4641    1.4166 H   0  0  0  0  0  0  0  0  0  0  0  0
   -1.8610   -2.0021   -0.9139 H   0  0  0  0  0  0  0  0  0  0  0  0
   -3.4469   -1.1915   -0.5017 H   0  0  0  0  0  0  0  0  0  0  0  0
   -0.0043   -2.1110    0.4653 H   0  0  0  0  0  0  0  0  0  0  0  0
    2.4486   -2.0380    0.4748 H   0  0  0  0  0  0  0  0  0  0  0  0
    3.6282    0.0824    0.0184 H   0  0  0  0  0  0  0  0  0  0  0  0
    2.3264    2.1266   -0.4506 H   0  0  0  0  0  0  0  0  0  0  0  0
   -0.1182    2.0554   -0.4739 H   0  0  0  0  0  0  0  0  0  0  0  0
  1  2  1  0  0  0  0
  2  3  2  0  0  0  0
  2  4  1  0  0  0  0
  4  5  4  0  0  0  0
  5  6  4  0  0  0  0
  6  7  4  0  0  0  0
  7  8  4  0  0  0  0
  4  9  4  0  0  0  0
  8  9  4  0  0  0  0
  1 10  1  0  0  0  0
  1 11  1  0  0  0  0
  1 12  1  0  0  0  0
  3 13  1  0  0  0  0
  3 14  1  0  0  0  0
  5 15  1  0  0  0  0
  6 16  1  0  0  0  0
  7 17  1  0  0  0  0
  8 18  1  0  0  0  0
  9 19  1  0  0  0  0
M  END
