 xtb: 6.7.1 (edcfbbe)
          04062520053D

 27 27  0     0  0            999 V2000
   -3.4325    0.5808    0.0262 C   0  0  0  0  0  0  0  0  0  0  0  0
   -1.9377    0.5000    0.0645 C   0  0  0  0  0  0  0  0  0  0  0  0
   -1.1446    1.4897   -0.3213 C   0  0  0  0  0  0  0  0  0  0  0  0
    0.3507    1.4362   -0.3201 C   0  0  0  0  0  0  0  0  0  0  0  0
    0.8578   -0.0046   -0.1984 C   0  0  0  0  0  0  0  0  0  0  0  0
    0.5957   -0.5322   -1.1219 H   0  0  0  0  0  0  0  0  0  0  0  0
    0.0946   -0.6834    0.9409 C   0  0  0  0  0  0  0  0  0  0  0  0
   -1.3793   -0.8194    0.5503 C   0  0  0  0  0  0  0  0  0  0  0  0
   -1.9600   -1.1413    1.4319 H   0  0  0  0  0  0  0  0  0  0  0  0
   -1.5699   -1.7689   -0.4925 O   0  0  0  0  0  0  0  0  0  0  0  0
    2.3570   -0.0447   -0.0183 C   0  0  0  0  0  0  0  0  0  0  0  0
    2.9503    0.3311    1.1041 C   0  0  0  0  0  0  0  0  0  0  0  0
    3.1324   -0.5221   -1.2076 C   0  0  0  0  0  0  0  0  0  0  0  0
   -3.8413    0.4983    1.0329 H   0  0  0  0  0  0  0  0  0  0  0  0
   -3.8237   -0.2472   -0.5632 H   0  0  0  0  0  0  0  0  0  0  0  0
   -3.7608    1.5184   -0.4129 H   0  0  0  0  0  0  0  0  0  0  0  0
   -1.5801    2.4222   -0.6554 H   0  0  0  0  0  0  0  0  0  0  0  0
    0.7316    1.8921   -1.2371 H   0  0  0  0  0  0  0  0  0  0  0  0
    0.7315    2.0307    0.5169 H   0  0  0  0  0  0  0  0  0  0  0  0
    0.5193   -1.6684    1.1464 H   0  0  0  0  0  0  0  0  0  0  0  0
    0.1598   -0.0860    1.8503 H   0  0  0  0  0  0  0  0  0  0  0  0
   -1.2579   -2.6326   -0.1915 H   0  0  0  0  0  0  0  0  0  0  0  0
    4.0214    0.3079    1.2130 H   0  0  0  0  0  0  0  0  0  0  0  0
    2.3976    0.6772    1.9605 H   0  0  0  0  0  0  0  0  0  0  0  0
    2.8979    0.0916   -2.0763 H   0  0  0  0  0  0  0  0  0  0  0  0
    4.2023   -0.4789   -1.0234 H   0  0  0  0  0  0  0  0  0  0  0  0
    2.8571   -1.5490   -1.4449 H   0  0  0  0  0  0  0  0  0  0  0  0
  1  2  1  0  0  0  0
  2  3  2  0  0  0  0
  3  4  1  0  0  0  0
  4  5  1  0  0  0  0
  5  6  1  0  0  0  0
  5  7  1  0  0  0  0
  2  8  1  0  0  0  0
  7  8  1  0  0  0  0
  8  9  1  0  0  0  0
  8 10  1  0  0  0  0
  5 11  1  0  0  0  0
 11 12  2  0  0  0  0
 11 13  1  0  0  0  0
  1 14  1  0  0  0  0
  1 15  1  0  0  0  0
  1 16  1  0  0  0  0
  3 17  1  0  0  0  0
  4 18  1  0  0  0  0
  4 19  1  0  0  0  0
  7 20  1  0  0  0  0
  7 21  1  0  0  0  0
 10 22  1  0  0  0  0
 12 23  1  0  0  0  0
 12 24  1  0  0  0  0
 13 25  1  0  0  0  0
 13 26  1  0  0  0  0
 13 27  1  0  0  0  0
M  END
