 xtb: 6.7.1 (edcfbbe)
          04042516023D

 14 13  0     0  0            999 V2000
   -2.3177   -0.1993   -0.5653 C   0  0  0  0  0  0  0  0  0  0  0  0
   -1.2769   -0.5866    0.4870 C   0  0  0  0  0  0  0  0  0  0  0  0
    0.0081    0.1611    0.2414 C   0  0  0  0  0  0  0  0  0  0  0  0
    0.1257    1.3683    0.2803 O   0  0  0  0  0  0  0  0  0  0  0  0
    1.0047   -0.6661   -0.0486 O   0  0  0  0  0  0  0  0  0  0  0  0
    2.2982   -0.1208   -0.3278 C   0  0  0  0  0  0  0  0  0  0  0  0
   -2.4554    0.8794   -0.5703 H   0  0  0  0  0  0  0  0  0  0  0  0
   -1.9942   -0.5126   -1.5548 H   0  0  0  0  0  0  0  0  0  0  0  0
   -3.2665   -0.6760   -0.3397 H   0  0  0  0  0  0  0  0  0  0  0  0
   -1.0708   -1.6553    0.4593 H   0  0  0  0  0  0  0  0  0  0  0  0
   -1.6415   -0.3070    1.4764 H   0  0  0  0  0  0  0  0  0  0  0  0
    2.7191   -0.7173   -1.1328 H   0  0  0  0  0  0  0  0  0  0  0  0
    2.9138   -0.1998    0.5676 H   0  0  0  0  0  0  0  0  0  0  0  0
    2.2042    0.9255   -0.6208 H   0  0  0  0  0  0  0  0  0  0  0  0
  1  2  1  0  0  0  0
  2  3  1  0  0  0  0
  3  4  2  0  0  0  0
  3  5  1  0  0  0  0
  5  6  1  0  0  0  0
  1  7  1  0  0  0  0
  1  8  1  0  0  0  0
  1  9  1  0  0  0  0
  2 10  1  0  0  0  0
  2 11  1  0  0  0  0
  6 12  1  0  0  0  0
  6 13  1  0  0  0  0
  6 14  1  0  0  0  0
M  END
