 xtb: 6.7.1 (edcfbbe)
          04052502593D

 19 19  0     0  0            999 V2000
   -2.6327    0.6061    0.7599 C   0  0  0  0  0  0  0  0  0  0  0  0
   -1.8480    0.5832   -0.5534 C   0  0  0  0  0  0  0  0  0  0  0  0
   -0.3812    0.3887   -0.2943 C   0  0  0  0  0  0  0  0  0  0  0  0
    0.4875    1.4651   -0.2190 C   0  0  0  0  0  0  0  0  0  0  0  0
    1.8345    1.2896    0.0507 C   0  0  0  0  0  0  0  0  0  0  0  0
    2.3302    0.0143    0.2495 C   0  0  0  0  0  0  0  0  0  0  0  0
    1.4814   -1.0762    0.1794 C   0  0  0  0  0  0  0  0  0  0  0  0
    0.1300   -0.8978   -0.0867 C   0  0  0  0  0  0  0  0  0  0  0  0
   -0.7305   -1.9528   -0.1583 O   0  0  0  0  0  0  0  0  0  0  0  0
   -3.6910    0.7606    0.5654 H   0  0  0  0  0  0  0  0  0  0  0  0
   -2.2731    1.4075    1.4015 H   0  0  0  0  0  0  0  0  0  0  0  0
   -2.5098   -0.3387    1.2837 H   0  0  0  0  0  0  0  0  0  0  0  0
   -2.0030    1.5221   -1.0873 H   0  0  0  0  0  0  0  0  0  0  0  0
   -2.2153   -0.2373   -1.1725 H   0  0  0  0  0  0  0  0  0  0  0  0
    0.0972    2.4599   -0.3780 H   0  0  0  0  0  0  0  0  0  0  0  0
    2.4918    2.1439    0.1035 H   0  0  0  0  0  0  0  0  0  0  0  0
    3.3782   -0.1375    0.4591 H   0  0  0  0  0  0  0  0  0  0  0  0
    1.8698   -2.0731    0.3341 H   0  0  0  0  0  0  0  0  0  0  0  0
   -0.2538   -2.7847   -0.0217 H   0  0  0  0  0  0  0  0  0  0  0  0
  1  2  1  0  0  0  0
  2  3  1  0  0  0  0
  3  4  4  0  0  0  0
  4  5  4  0  0  0  0
  5  6  4  0  0  0  0
  6  7  4  0  0  0  0
  3  8  4  0  0  0  0
  7  8  4  0  0  0  0
  8  9  1  0  0  0  0
  1 10  1  0  0  0  0
  1 11  1  0  0  0  0
  1 12  1  0  0  0  0
  2 13  1  0  0  0  0
  2 14  1  0  0  0  0
  4 15  1  0  0  0  0
  5 16  1  0  0  0  0
  6 17  1  0  0  0  0
  7 18  1  0  0  0  0
  9 19  1  0  0  0  0
M  END
