 xtb: 6.7.1 (edcfbbe)
          04032521453D

  8  7  0     0  0            999 V2000
    0.1685   -0.6520    0.5216 C   0  0  0  0  0  0  0  0  0  0  0  0
    0.2029   -0.7479    1.6140 H   0  0  0  0  0  0  0  0  0  0  0  0
    1.3303    0.2128    0.0191 C   0  0  0  0  0  0  0  0  0  0  0  0
    1.2851    1.4289    0.5637 F   0  0  0  0  0  0  0  0  0  0  0  0
    1.3283    0.3585   -1.3026 F   0  0  0  0  0  0  0  0  0  0  0  0
    2.5068   -0.3277    0.3590 F   0  0  0  0  0  0  0  0  0  0  0  0
    0.2575   -1.8783   -0.0311 F   0  0  0  0  0  0  0  0  0  0  0  0
   -1.5065    0.1750   -0.0039 Br  0  0  0  0  0  0  0  0  0  0  0  0
  1  2  1  0  0  0  0
  1  3  1  0  0  0  0
  3  4  1  0  0  0  0
  3  5  1  0  0  0  0
  3  6  1  0  0  0  0
  1  7  1  0  0  0  0
  1  8  1  0  0  0  0
M  END
