 xtb: 6.7.1 (edcfbbe)
          04062520053D

 27 27  0     0  0            999 V2000
   -3.4243    0.5777    0.0775 C   0  0  0  0  0  0  0  0  0  0  0  0
   -1.9294    0.4901    0.0826 C   0  0  0  0  0  0  0  0  0  0  0  0
   -1.1398    1.4981   -0.2602 C   0  0  0  0  0  0  0  0  0  0  0  0
    0.3552    1.4410   -0.2879 C   0  0  0  0  0  0  0  0  0  0  0  0
    0.8560   -0.0079   -0.2680 C   0  0  0  0  0  0  0  0  0  0  0  0
    0.5698   -0.4694   -1.2199 H   0  0  0  0  0  0  0  0  0  0  0  0
    0.1153   -0.7539    0.8431 C   0  0  0  0  0  0  0  0  0  0  0  0
   -1.3678   -0.8579    0.4777 C   0  0  0  0  0  0  0  0  0  0  0  0
   -1.9311   -1.2293    1.3514 H   0  0  0  0  0  0  0  0  0  0  0  0
   -1.5891   -1.7423   -0.6153 O   0  0  0  0  0  0  0  0  0  0  0  0
    2.3568   -0.0701   -0.1355 C   0  0  0  0  0  0  0  0  0  0  0  0
    3.1206   -0.3548   -1.1793 C   0  0  0  0  0  0  0  0  0  0  0  0
    2.9421    0.2121    1.2151 C   0  0  0  0  0  0  0  0  0  0  0  0
   -3.8299   -0.2164   -0.5478 H   0  0  0  0  0  0  0  0  0  0  0  0
   -3.7571    1.5384   -0.3045 H   0  0  0  0  0  0  0  0  0  0  0  0
   -3.8143    0.4426    1.0860 H   0  0  0  0  0  0  0  0  0  0  0  0
   -1.5774    2.4496   -0.5319 H   0  0  0  0  0  0  0  0  0  0  0  0
    0.7249    1.9486   -1.1818 H   0  0  0  0  0  0  0  0  0  0  0  0
    0.7442    1.9867    0.5776 H   0  0  0  0  0  0  0  0  0  0  0  0
    0.5328   -1.7551    0.9717 H   0  0  0  0  0  0  0  0  0  0  0  0
    0.2024   -0.2150    1.7867 H   0  0  0  0  0  0  0  0  0  0  0  0
   -1.2606   -2.6203   -0.3806 H   0  0  0  0  0  0  0  0  0  0  0  0
    4.1951   -0.3849   -1.1092 H   0  0  0  0  0  0  0  0  0  0  0  0
    2.7028   -0.5686   -2.1489 H   0  0  0  0  0  0  0  0  0  0  0  0
    2.5421    1.1364    1.6262 H   0  0  0  0  0  0  0  0  0  0  0  0
    2.6990   -0.5930    1.9067 H   0  0  0  0  0  0  0  0  0  0  0  0
    4.0235    0.2966    1.1521 H   0  0  0  0  0  0  0  0  0  0  0  0
  1  2  1  0  0  0  0
  2  3  2  0  0  0  0
  3  4  1  0  0  0  0
  4  5  1  0  0  0  0
  5  6  1  0  0  0  0
  5  7  1  0  0  0  0
  2  8  1  0  0  0  0
  7  8  1  0  0  0  0
  8  9  1  0  0  0  0
  8 10  1  0  0  0  0
  5 11  1  0  0  0  0
 11 12  2  0  0  0  0
 11 13  1  0  0  0  0
  1 14  1  0  0  0  0
  1 15  1  0  0  0  0
  1 16  1  0  0  0  0
  3 17  1  0  0  0  0
  4 18  1  0  0  0  0
  4 19  1  0  0  0  0
  7 20  1  0  0  0  0
  7 21  1  0  0  0  0
 10 22  1  0  0  0  0
 12 23  1  0  0  0  0
 12 24  1  0  0  0  0
 13 25  1  0  0  0  0
 13 26  1  0  0  0  0
 13 27  1  0  0  0  0
M  END
