 xtb: 6.7.1 (edcfbbe)
          04062518003D

 24 24  0     0  0            999 V2000
   -2.5067   -1.0202    0.3688 C   0  0  0  0  0  0  0  0  0  0  0  0
   -1.0618   -0.5339    0.6033 C   0  0  0  0  0  0  0  0  0  0  0  0
   -0.8841   -0.4745    1.6886 H   0  0  0  0  0  0  0  0  0  0  0  0
   -0.7990    0.8430   -0.0409 C   0  0  0  0  0  0  0  0  0  0  0  0
   -0.9422    0.7342   -1.1236 H   0  0  0  0  0  0  0  0  0  0  0  0
    0.6582    1.2581    0.2277 C   0  0  0  0  0  0  0  0  0  0  0  0
    0.8274    1.3535    1.3075 H   0  0  0  0  0  0  0  0  0  0  0  0
    1.5889    0.1597   -0.3073 C   0  0  0  0  0  0  0  0  0  0  0  0
    1.4874    0.1033   -1.4040 H   0  0  0  0  0  0  0  0  0  0  0  0
    1.1759   -1.2055    0.2929 C   0  0  0  0  0  0  0  0  0  0  0  0
    1.3770   -1.1768    1.3794 H   0  0  0  0  0  0  0  0  0  0  0  0
   -0.1753   -1.4894    0.0469 O   0  0  0  0  0  0  0  0  0  0  0  0
    1.9418   -2.2322   -0.2324 O   0  0  0  0  0  0  0  0  0  0  0  0
    2.9130    0.4641    0.0455 O   0  0  0  0  0  0  0  0  0  0  0  0
    0.9463    2.5288   -0.2872 O   0  0  0  0  0  0  0  0  0  0  0  0
   -1.7289    1.8061    0.3790 O   0  0  0  0  0  0  0  0  0  0  0  0
   -3.0263   -0.6974   -0.8931 O   0  0  0  0  0  0  0  0  0  0  0  0
   -3.1425   -0.6158    1.1626 H   0  0  0  0  0  0  0  0  0  0  0  0
   -2.5018   -2.1102    0.4280 H   0  0  0  0  0  0  0  0  0  0  0  0
    1.5004   -2.5799   -1.0238 H   0  0  0  0  0  0  0  0  0  0  0  0
    3.4733   -0.3038   -0.1479 H   0  0  0  0  0  0  0  0  0  0  0  0
    0.9012    2.5185   -1.2541 H   0  0  0  0  0  0  0  0  0  0  0  0
   -1.4409    2.2113    1.2088 H   0  0  0  0  0  0  0  0  0  0  0  0
   -3.2209    0.2511   -0.9172 H   0  0  0  0  0  0  0  0  0  0  0  0
  1  2  1  0  0  0  0
  2  3  1  0  0  0  0
  2  4  1  0  0  0  0
  4  5  1  0  0  0  0
  4  6  1  0  0  0  0
  6  7  1  0  0  0  0
  6  8  1  0  0  0  0
  8  9  1  0  0  0  0
  8 10  1  0  0  0  0
 10 11  1  0  0  0  0
  2 12  1  0  0  0  0
 10 12  1  0  0  0  0
 10 13  1  0  0  0  0
  8 14  1  0  0  0  0
  6 15  1  0  0  0  0
  4 16  1  0  0  0  0
  1 17  1  0  0  0  0
  1 18  1  0  0  0  0
  1 19  1  0  0  0  0
 13 20  1  0  0  0  0
 14 21  1  0  0  0  0
 15 22  1  0  0  0  0
 16 23  1  0  0  0  0
 17 24  1  0  0  0  0
M  END
