 xtb: 6.7.1 (edcfbbe)
          04062518003D

 24 24  0     0  0            999 V2000
   -1.8901   -0.5697   -0.8224 C   0  0  0  0  0  0  0  0  0  0  0  0
   -1.2201   -0.1022    0.4827 C   0  0  0  0  0  0  0  0  0  0  0  0
   -1.9672   -0.1119    1.2877 H   0  0  0  0  0  0  0  0  0  0  0  0
   -0.6383    1.3150    0.3584 C   0  0  0  0  0  0  0  0  0  0  0  0
   -1.3865    1.9551   -0.1323 H   0  0  0  0  0  0  0  0  0  0  0  0
    0.6523    1.3297   -0.4891 C   0  0  0  0  0  0  0  0  0  0  0  0
    1.1434    2.2970   -0.3108 H   0  0  0  0  0  0  0  0  0  0  0  0
    1.6349    0.2588    0.0194 C   0  0  0  0  0  0  0  0  0  0  0  0
    2.4025    0.1031   -0.7454 H   0  0  0  0  0  0  0  0  0  0  0  0
    0.9598   -1.1083    0.2534 C   0  0  0  0  0  0  0  0  0  0  0  0
    1.6133   -1.6843    0.9323 H   0  0  0  0  0  0  0  0  0  0  0  0
   -0.2466   -1.0245    0.9637 O   0  0  0  0  0  0  0  0  0  0  0  0
    0.8326   -1.7545   -0.9732 O   0  0  0  0  0  0  0  0  0  0  0  0
    2.2938    0.6931    1.1797 O   0  0  0  0  0  0  0  0  0  0  0  0
    0.4008    1.1333   -1.8554 O   0  0  0  0  0  0  0  0  0  0  0  0
   -0.2841    1.8426    1.6172 O   0  0  0  0  0  0  0  0  0  0  0  0
   -2.3675   -1.8885   -0.7326 O   0  0  0  0  0  0  0  0  0  0  0  0
   -1.1635   -0.5650   -1.6360 H   0  0  0  0  0  0  0  0  0  0  0  0
   -2.7048    0.1260   -1.0629 H   0  0  0  0  0  0  0  0  0  0  0  0
    0.3398   -2.5819   -0.8542 H   0  0  0  0  0  0  0  0  0  0  0  0
    1.6265    1.0087    1.8137 H   0  0  0  0  0  0  0  0  0  0  0  0
    0.1678    1.9738   -2.2744 H   0  0  0  0  0  0  0  0  0  0  0  0
   -1.0637    1.8977    2.1890 H   0  0  0  0  0  0  0  0  0  0  0  0
   -3.0152   -1.9536   -0.0162 H   0  0  0  0  0  0  0  0  0  0  0  0
  1  2  1  0  0  0  0
  2  3  1  0  0  0  0
  2  4  1  0  0  0  0
  4  5  1  0  0  0  0
  4  6  1  0  0  0  0
  6  7  1  0  0  0  0
  6  8  1  0  0  0  0
  8  9  1  0  0  0  0
  8 10  1  0  0  0  0
 10 11  1  0  0  0  0
  2 12  1  0  0  0  0
 10 12  1  0  0  0  0
 10 13  1  0  0  0  0
  8 14  1  0  0  0  0
  6 15  1  0  0  0  0
  4 16  1  0  0  0  0
  1 17  1  0  0  0  0
  1 18  1  0  0  0  0
  1 19  1  0  0  0  0
 13 20  1  0  0  0  0
 14 21  1  0  0  0  0
 15 22  1  0  0  0  0
 16 23  1  0  0  0  0
 17 24  1  0  0  0  0
M  END
