 xtb: 6.7.1 (edcfbbe)
          04032521123D

 12 11  0     0  0            999 V2000
    1.8139    0.0073    0.9992 C   0  0  0  0  0  0  0  0  0  0  0  0
    0.9788   -0.3423   -0.2306 C   0  0  0  0  0  0  0  0  0  0  0  0
    1.0552   -1.4120   -0.4533 H   0  0  0  0  0  0  0  0  0  0  0  0
   -0.5064   -0.0904    0.0728 C   0  0  0  0  0  0  0  0  0  0  0  0
   -1.2926   -0.3478   -0.9899 F   0  0  0  0  0  0  0  0  0  0  0  0
   -0.9626   -0.8778    1.0667 F   0  0  0  0  0  0  0  0  0  0  0  0
   -0.7707    1.1703    0.4397 F   0  0  0  0  0  0  0  0  0  0  0  0
    1.3297    0.4607   -1.3277 O   0  0  0  0  0  0  0  0  0  0  0  0
    2.8565   -0.2099    0.7921 H   0  0  0  0  0  0  0  0  0  0  0  0
    1.4834   -0.5741    1.8545 H   0  0  0  0  0  0  0  0  0  0  0  0
    1.7125    1.0674    1.2165 H   0  0  0  0  0  0  0  0  0  0  0  0
    1.5761   -0.0698   -2.0976 H   0  0  0  0  0  0  0  0  0  0  0  0
  1  2  1  0  0  0  0
  2  3  1  0  0  0  0
  2  4  1  0  0  0  0
  4  5  1  0  0  0  0
  4  6  1  0  0  0  0
  4  7  1  0  0  0  0
  2  8  1  0  0  0  0
  1  9  1  0  0  0  0
  1 10  1  0  0  0  0
  1 11  1  0  0  0  0
  8 12  1  0  0  0  0
M  END
