 xtb: 6.7.1 (edcfbbe)
          04052516073D

 27 27  0     0  0            999 V2000
   -2.5393    0.6224   -1.1550 C   0  0  0  0  0  0  0  0  0  0  0  0
   -2.0307    0.4172    0.2781 C   0  0  0  0  0  0  0  0  0  0  0  0
   -2.9079    0.4082    0.9354 H   0  0  0  0  0  0  0  0  0  0  0  0
   -1.0685    1.5139    0.7279 C   0  0  0  0  0  0  0  0  0  0  0  0
    0.2487    1.5028   -0.0521 C   0  0  0  0  0  0  0  0  0  0  0  0
    0.7756    0.0770   -0.3153 C   0  0  0  0  0  0  0  0  0  0  0  0
    0.5237   -0.2103   -1.3408 H   0  0  0  0  0  0  0  0  0  0  0  0
    0.0928   -0.9425    0.6113 C   0  0  0  0  0  0  0  0  0  0  0  0
   -1.3903   -0.9488    0.3842 C   0  0  0  0  0  0  0  0  0  0  0  0
   -2.0348   -1.9757    0.2756 O   0  0  0  0  0  0  0  0  0  0  0  0
    2.2811   -0.0099   -0.1657 C   0  0  0  0  0  0  0  0  0  0  0  0
    2.8916    0.2456    0.9807 C   0  0  0  0  0  0  0  0  0  0  0  0
    3.0287   -0.4096   -1.3994 C   0  0  0  0  0  0  0  0  0  0  0  0
   -3.2111   -0.1888   -1.4262 H   0  0  0  0  0  0  0  0  0  0  0  0
   -3.0771    1.5638   -1.2245 H   0  0  0  0  0  0  0  0  0  0  0  0
   -1.7149    0.6367   -1.8619 H   0  0  0  0  0  0  0  0  0  0  0  0
   -1.5492    2.4857    0.6084 H   0  0  0  0  0  0  0  0  0  0  0  0
   -0.8644    1.3805    1.7917 H   0  0  0  0  0  0  0  0  0  0  0  0
    0.1149    2.0133   -1.0060 H   0  0  0  0  0  0  0  0  0  0  0  0
    0.9907    2.0680    0.5127 H   0  0  0  0  0  0  0  0  0  0  0  0
    0.4901   -1.9454    0.4457 H   0  0  0  0  0  0  0  0  0  0  0  0
    0.2766   -0.6741    1.6529 H   0  0  0  0  0  0  0  0  0  0  0  0
    3.9613    0.1809    1.0788 H   0  0  0  0  0  0  0  0  0  0  0  0
    2.3543    0.5325    1.8686 H   0  0  0  0  0  0  0  0  0  0  0  0
    2.8433    0.3083   -2.1973 H   0  0  0  0  0  0  0  0  0  0  0  0
    4.0975   -0.4584   -1.2122 H   0  0  0  0  0  0  0  0  0  0  0  0
    2.6873   -1.3851   -1.7440 H   0  0  0  0  0  0  0  0  0  0  0  0
  1  2  1  0  0  0  0
  2  3  1  0  0  0  0
  2  4  1  0  0  0  0
  4  5  1  0  0  0  0
  5  6  1  0  0  0  0
  6  7  1  0  0  0  0
  6  8  1  0  0  0  0
  2  9  1  0  0  0  0
  8  9  1  0  0  0  0
  9 10  2  0  0  0  0
  6 11  1  0  0  0  0
 11 12  2  0  0  0  0
 11 13  1  0  0  0  0
  1 14  1  0  0  0  0
  1 15  1  0  0  0  0
  1 16  1  0  0  0  0
  4 17  1  0  0  0  0
  4 18  1  0  0  0  0
  5 19  1  0  0  0  0
  5 20  1  0  0  0  0
  8 21  1  0  0  0  0
  8 22  1  0  0  0  0
 12 23  1  0  0  0  0
 12 24  1  0  0  0  0
 13 25  1  0  0  0  0
 13 26  1  0  0  0  0
 13 27  1  0  0  0  0
M  END
