 xtb: 6.7.1 (edcfbbe)
          04062505073D

 29 29  0     0  0            999 V2000
   -3.2062   -0.2960   -0.9729 C   0  0  0  0  0  0  0  0  0  0  0  0
   -1.7286   -0.2264   -0.5945 C   0  0  0  0  0  0  0  0  0  0  0  0
   -1.1480   -0.1619   -1.5200 H   0  0  0  0  0  0  0  0  0  0  0  0
   -1.3034   -1.4775    0.1901 C   0  0  0  0  0  0  0  0  0  0  0  0
   -0.1789   -1.1989    1.1957 C   0  0  0  0  0  0  0  0  0  0  0  0
    0.7861   -0.1047    0.7309 C   0  0  0  0  0  0  0  0  0  0  0  0
    1.5313    0.0849    1.5128 H   0  0  0  0  0  0  0  0  0  0  0  0
    0.0123    1.1845    0.5674 C   0  0  0  0  0  0  0  0  0  0  0  0
    0.5181    2.2753    0.7601 O   0  0  0  0  0  0  0  0  0  0  0  0
   -1.4420    1.0350    0.2182 C   0  0  0  0  0  0  0  0  0  0  0  0
    1.5734   -0.4973   -0.5462 C   0  0  0  0  0  0  0  0  0  0  0  0
    2.1703    0.7243   -1.2418 C   0  0  0  0  0  0  0  0  0  0  0  0
    2.6881   -1.4796   -0.1901 C   0  0  0  0  0  0  0  0  0  0  0  0
   -3.8286   -0.3086   -0.0811 H   0  0  0  0  0  0  0  0  0  0  0  0
   -3.4880    0.5633   -1.5767 H   0  0  0  0  0  0  0  0  0  0  0  0
   -3.4052   -1.1982   -1.5459 H   0  0  0  0  0  0  0  0  0  0  0  0
   -2.1630   -1.8679    0.7373 H   0  0  0  0  0  0  0  0  0  0  0  0
   -0.9939   -2.2517   -0.5126 H   0  0  0  0  0  0  0  0  0  0  0  0
   -0.6104   -0.8777    2.1460 H   0  0  0  0  0  0  0  0  0  0  0  0
    0.3721   -2.1187    1.3902 H   0  0  0  0  0  0  0  0  0  0  0  0
   -1.9911    0.9964    1.1638 H   0  0  0  0  0  0  0  0  0  0  0  0
   -1.7727    1.9333   -0.3069 H   0  0  0  0  0  0  0  0  0  0  0  0
    0.8908   -0.9903   -1.2416 H   0  0  0  0  0  0  0  0  0  0  0  0
    2.8065    0.4110   -2.0660 H   0  0  0  0  0  0  0  0  0  0  0  0
    2.7674    1.3083   -0.5445 H   0  0  0  0  0  0  0  0  0  0  0  0
    1.3922    1.3740   -1.6376 H   0  0  0  0  0  0  0  0  0  0  0  0
    3.1991   -1.8035   -1.0934 H   0  0  0  0  0  0  0  0  0  0  0  0
    2.2945   -2.3596    0.3105 H   0  0  0  0  0  0  0  0  0  0  0  0
    3.4166   -1.0052    0.4638 H   0  0  0  0  0  0  0  0  0  0  0  0
  1  2  1  0  0  0  0
  2  3  1  0  0  0  0
  2  4  1  0  0  0  0
  4  5  1  0  0  0  0
  5  6  1  0  0  0  0
  6  7  1  0  0  0  0
  6  8  1  0  0  0  0
  8  9  2  0  0  0  0
  2 10  1  0  0  0  0
  8 10  1  0  0  0  0
  6 11  1  0  0  0  0
 11 12  1  0  0  0  0
 11 13  1  0  0  0  0
  1 14  1  0  0  0  0
  1 15  1  0  0  0  0
  1 16  1  0  0  0  0
  4 17  1  0  0  0  0
  4 18  1  0  0  0  0
  5 19  1  0  0  0  0
  5 20  1  0  0  0  0
 10 21  1  0  0  0  0
 10 22  1  0  0  0  0
 11 23  1  0  0  0  0
 12 24  1  0  0  0  0
 12 25  1  0  0  0  0
 12 26  1  0  0  0  0
 13 27  1  0  0  0  0
 13 28  1  0  0  0  0
 13 29  1  0  0  0  0
M  END
