 xtb: 6.7.1 (edcfbbe)
          04062518003D

 24 24  0     0  0            999 V2000
   -2.4244   -1.0809   -0.3492 C   0  0  0  0  0  0  0  0  0  0  0  0
   -1.0764   -0.5942    0.2015 C   0  0  0  0  0  0  0  0  0  0  0  0
   -1.1311   -0.5815    1.3014 H   0  0  0  0  0  0  0  0  0  0  0  0
   -0.7419    0.8239   -0.2866 C   0  0  0  0  0  0  0  0  0  0  0  0
   -0.7226    0.8259   -1.3884 H   0  0  0  0  0  0  0  0  0  0  0  0
    0.6522    1.2293    0.2085 C   0  0  0  0  0  0  0  0  0  0  0  0
    0.6415    1.2902    1.3085 H   0  0  0  0  0  0  0  0  0  0  0  0
    1.6738    0.1676   -0.2065 C   0  0  0  0  0  0  0  0  0  0  0  0
    1.7442    0.1522   -1.3057 H   0  0  0  0  0  0  0  0  0  0  0  0
    1.1968   -1.2173    0.2804 C   0  0  0  0  0  0  0  0  0  0  0  0
    1.1908   -1.2163    1.3848 H   0  0  0  0  0  0  0  0  0  0  0  0
   -0.0838   -1.5065   -0.2235 O   0  0  0  0  0  0  0  0  0  0  0  0
    2.0635   -2.2190   -0.1184 O   0  0  0  0  0  0  0  0  0  0  0  0
    2.9144    0.5039    0.3615 O   0  0  0  0  0  0  0  0  0  0  0  0
    0.9468    2.4896   -0.3419 O   0  0  0  0  0  0  0  0  0  0  0  0
   -1.7295    1.7039    0.1828 O   0  0  0  0  0  0  0  0  0  0  0  0
   -3.5140   -0.4958    0.3085 O   0  0  0  0  0  0  0  0  0  0  0  0
   -2.4975   -2.1579   -0.1845 H   0  0  0  0  0  0  0  0  0  0  0  0
   -2.4632   -0.8865   -1.4293 H   0  0  0  0  0  0  0  0  0  0  0  0
    1.7956   -2.5390   -0.9944 H   0  0  0  0  0  0  0  0  0  0  0  0
    3.5222   -0.2443    0.2601 H   0  0  0  0  0  0  0  0  0  0  0  0
    1.8582    2.7227   -0.1125 H   0  0  0  0  0  0  0  0  0  0  0  0
   -1.4479    2.6110   -0.0134 H   0  0  0  0  0  0  0  0  0  0  0  0
   -3.3942    0.4687    0.3009 H   0  0  0  0  0  0  0  0  0  0  0  0
  1  2  1  0  0  0  0
  2  3  1  0  0  0  0
  2  4  1  0  0  0  0
  4  5  1  0  0  0  0
  4  6  1  0  0  0  0
  6  7  1  0  0  0  0
  6  8  1  0  0  0  0
  8  9  1  0  0  0  0
  8 10  1  0  0  0  0
 10 11  1  0  0  0  0
  2 12  1  0  0  0  0
 10 12  1  0  0  0  0
 10 13  1  0  0  0  0
  8 14  1  0  0  0  0
  6 15  1  0  0  0  0
  4 16  1  0  0  0  0
  1 17  1  0  0  0  0
  1 18  1  0  0  0  0
  1 19  1  0  0  0  0
 13 20  1  0  0  0  0
 14 21  1  0  0  0  0
 15 22  1  0  0  0  0
 16 23  1  0  0  0  0
 17 24  1  0  0  0  0
M  END
