 xtb: 6.7.1 (edcfbbe)
          04062518003D

 24 24  0     0  0            999 V2000
   -1.6353   -1.3036   -0.6566 C   0  0  0  0  0  0  0  0  0  0  0  0
   -1.1508   -0.4908    0.5532 C   0  0  0  0  0  0  0  0  0  0  0  0
   -1.9495   -0.5147    1.3025 H   0  0  0  0  0  0  0  0  0  0  0  0
   -0.8797    0.9929    0.2032 C   0  0  0  0  0  0  0  0  0  0  0  0
   -1.2796    1.2136   -0.7909 H   0  0  0  0  0  0  0  0  0  0  0  0
    0.6304    1.2773    0.1955 C   0  0  0  0  0  0  0  0  0  0  0  0
    0.9773    1.4095    1.2344 H   0  0  0  0  0  0  0  0  0  0  0  0
    1.3977    0.0911   -0.4011 C   0  0  0  0  0  0  0  0  0  0  0  0
    1.0305   -0.0985   -1.4182 H   0  0  0  0  0  0  0  0  0  0  0  0
    1.1561   -1.1597    0.4627 C   0  0  0  0  0  0  0  0  0  0  0  0
    1.9425   -1.2091    1.2324 H   0  0  0  0  0  0  0  0  0  0  0  0
   -0.0401   -1.0972    1.2005 O   0  0  0  0  0  0  0  0  0  0  0  0
    1.2068   -2.2742   -0.3742 O   0  0  0  0  0  0  0  0  0  0  0  0
    2.7586    0.4429   -0.4265 O   0  0  0  0  0  0  0  0  0  0  0  0
    0.8616    2.4479   -0.5414 O   0  0  0  0  0  0  0  0  0  0  0  0
   -1.5676    1.8646    1.0611 O   0  0  0  0  0  0  0  0  0  0  0  0
   -2.8528   -0.7477   -1.0912 O   0  0  0  0  0  0  0  0  0  0  0  0
   -1.7705   -2.3433   -0.3328 H   0  0  0  0  0  0  0  0  0  0  0  0
   -0.8850   -1.2780   -1.4556 H   0  0  0  0  0  0  0  0  0  0  0  0
    1.1726   -3.0898    0.1486 H   0  0  0  0  0  0  0  0  0  0  0  0
    3.2605   -0.2165   -0.9261 H   0  0  0  0  0  0  0  0  0  0  0  0
    1.8208    2.5554   -0.6436 H   0  0  0  0  0  0  0  0  0  0  0  0
   -1.2070    1.7962    1.9577 H   0  0  0  0  0  0  0  0  0  0  0  0
   -3.1920   -1.2647   -1.8357 H   0  0  0  0  0  0  0  0  0  0  0  0
  1  2  1  0  0  0  0
  2  3  1  0  0  0  0
  2  4  1  0  0  0  0
  4  5  1  0  0  0  0
  4  6  1  0  0  0  0
  6  7  1  0  0  0  0
  6  8  1  0  0  0  0
  8  9  1  0  0  0  0
  8 10  1  0  0  0  0
 10 11  1  0  0  0  0
  2 12  1  0  0  0  0
 10 12  1  0  0  0  0
 10 13  1  0  0  0  0
  8 14  1  0  0  0  0
  6 15  1  0  0  0  0
  4 16  1  0  0  0  0
  1 17  1  0  0  0  0
  1 18  1  0  0  0  0
  1 19  1  0  0  0  0
 13 20  1  0  0  0  0
 14 21  1  0  0  0  0
 15 22  1  0  0  0  0
 16 23  1  0  0  0  0
 17 24  1  0  0  0  0
M  END
