 xtb: 6.7.1 (edcfbbe)
          04062518003D

 24 24  0     0  0            999 V2000
   -2.3406   -0.9103    0.6003 C   0  0  0  0  0  0  0  0  0  0  0  0
   -0.8923   -0.4033    0.6513 C   0  0  0  0  0  0  0  0  0  0  0  0
   -0.5503   -0.3751    1.6943 H   0  0  0  0  0  0  0  0  0  0  0  0
   -0.7423    1.0010    0.0392 C   0  0  0  0  0  0  0  0  0  0  0  0
   -1.3291    1.0249   -0.8922 H   0  0  0  0  0  0  0  0  0  0  0  0
    0.7367    1.2722   -0.3167 C   0  0  0  0  0  0  0  0  0  0  0  0
    0.9774    2.2721    0.0685 H   0  0  0  0  0  0  0  0  0  0  0  0
    1.6828    0.2709    0.3627 C   0  0  0  0  0  0  0  0  0  0  0  0
    2.6856    0.4375   -0.0533 H   0  0  0  0  0  0  0  0  0  0  0  0
    1.2764   -1.1684   -0.0311 C   0  0  0  0  0  0  0  0  0  0  0  0
    1.6788   -1.8805    0.7084 H   0  0  0  0  0  0  0  0  0  0  0  0
   -0.1254   -1.3361   -0.0994 O   0  0  0  0  0  0  0  0  0  0  0  0
    1.8244   -1.5360   -1.2467 O   0  0  0  0  0  0  0  0  0  0  0  0
    1.6633    0.4864    1.7494 O   0  0  0  0  0  0  0  0  0  0  0  0
    0.9813    1.1733   -1.6988 O   0  0  0  0  0  0  0  0  0  0  0  0
   -1.1594    2.0194    0.9145 O   0  0  0  0  0  0  0  0  0  0  0  0
   -2.8635   -0.9078   -0.7028 O   0  0  0  0  0  0  0  0  0  0  0  0
   -2.9838   -0.2593    1.1940 H   0  0  0  0  0  0  0  0  0  0  0  0
   -2.3647   -1.9197    1.0271 H   0  0  0  0  0  0  0  0  0  0  0  0
    1.5465   -0.8926   -1.9233 H   0  0  0  0  0  0  0  0  0  0  0  0
    2.4520    0.0998    2.1560 H   0  0  0  0  0  0  0  0  0  0  0  0
    0.5585    1.9101   -2.1624 H   0  0  0  0  0  0  0  0  0  0  0  0
   -2.1108    1.9457    1.0720 H   0  0  0  0  0  0  0  0  0  0  0  0
   -2.3240   -1.5023   -1.2438 H   0  0  0  0  0  0  0  0  0  0  0  0
  1  2  1  0  0  0  0
  2  3  1  0  0  0  0
  2  4  1  0  0  0  0
  4  5  1  0  0  0  0
  4  6  1  0  0  0  0
  6  7  1  0  0  0  0
  6  8  1  0  0  0  0
  8  9  1  0  0  0  0
  8 10  1  0  0  0  0
 10 11  1  0  0  0  0
  2 12  1  0  0  0  0
 10 12  1  0  0  0  0
 10 13  1  0  0  0  0
  8 14  1  0  0  0  0
  6 15  1  0  0  0  0
  4 16  1  0  0  0  0
  1 17  1  0  0  0  0
  1 18  1  0  0  0  0
  1 19  1  0  0  0  0
 13 20  1  0  0  0  0
 14 21  1  0  0  0  0
 15 22  1  0  0  0  0
 16 23  1  0  0  0  0
 17 24  1  0  0  0  0
M  END
