 xtb: 6.7.1 (edcfbbe)
          04032521503D

 13 13  0     0  0            999 V2000
   -1.8262   -1.3428    0.0000 C   0  0  0  0  0  0  0  0  0  0  0  0
   -0.4961   -1.7050    0.0001 C   0  0  0  0  0  0  0  0  0  0  0  0
    0.4924   -0.7315    0.0002 C   0  0  0  0  0  0  0  0  0  0  0  0
    0.1351    0.6093    0.0000 C   0  0  0  0  0  0  0  0  0  0  0  0
   -1.1981    0.9816    0.0001 C   0  0  0  0  0  0  0  0  0  0  0  0
   -2.1904    0.0045    0.0000 C   0  0  0  0  0  0  0  0  0  0  0  0
   -3.5005    0.3090   -0.0002 O   0  0  0  0  0  0  0  0  0  0  0  0
    1.3593    1.8380    0.0000 Cl  0  0  0  0  0  0  0  0  0  0  0  0
    2.1674   -1.1940   -0.0001 Cl  0  0  0  0  0  0  0  0  0  0  0  0
   -2.6027   -2.0892   -0.0001 H   0  0  0  0  0  0  0  0  0  0  0  0
   -0.2126   -2.7441    0.0000 H   0  0  0  0  0  0  0  0  0  0  0  0
   -1.4497    2.0301   -0.0001 H   0  0  0  0  0  0  0  0  0  0  0  0
   -3.6432    1.2689   -0.0002 H   0  0  0  0  0  0  0  0  0  0  0  0
  1  2  4  0  0  0  0
  2  3  4  0  0  0  0
  3  4  4  0  0  0  0
  4  5  4  0  0  0  0
  1  6  4  0  0  0  0
  5  6  4  0  0  0  0
  6  7  1  0  0  0  0
  4  8  1  0  0  0  0
  3  9  1  0  0  0  0
  1 10  1  0  0  0  0
  2 11  1  0  0  0  0
  5 12  1  0  0  0  0
  7 13  1  0  0  0  0
M  END
