 xtb: 6.7.1 (edcfbbe)
          04062518003D

 24 24  0     0  0            999 V2000
   -2.5300   -0.9489    0.2895 C   0  0  0  0  0  0  0  0  0  0  0  0
   -1.1092   -0.4863    0.6210 C   0  0  0  0  0  0  0  0  0  0  0  0
   -1.0013   -0.4260    1.7152 H   0  0  0  0  0  0  0  0  0  0  0  0
   -0.8414    0.9080    0.0351 C   0  0  0  0  0  0  0  0  0  0  0  0
   -1.1018    0.8809   -1.0349 H   0  0  0  0  0  0  0  0  0  0  0  0
    0.6404    1.2727    0.1905 C   0  0  0  0  0  0  0  0  0  0  0  0
    0.8573    1.4297    1.2539 H   0  0  0  0  0  0  0  0  0  0  0  0
    1.5428    0.1485   -0.3340 C   0  0  0  0  0  0  0  0  0  0  0  0
    1.3898    0.0348   -1.4210 H   0  0  0  0  0  0  0  0  0  0  0  0
    1.1454   -1.1773    0.3461 C   0  0  0  0  0  0  0  0  0  0  0  0
    1.3394   -1.0887    1.4278 H   0  0  0  0  0  0  0  0  0  0  0  0
   -0.2162   -1.4489    0.1013 O   0  0  0  0  0  0  0  0  0  0  0  0
    1.8781   -2.2582   -0.0876 O   0  0  0  0  0  0  0  0  0  0  0  0
    2.8941    0.4063   -0.0564 O   0  0  0  0  0  0  0  0  0  0  0  0
    0.9394    2.5012   -0.4317 O   0  0  0  0  0  0  0  0  0  0  0  0
   -1.6617    1.8223    0.7192 O   0  0  0  0  0  0  0  0  0  0  0  0
   -2.7228   -0.8954   -1.1046 O   0  0  0  0  0  0  0  0  0  0  0  0
   -3.2263   -0.2783    0.8067 H   0  0  0  0  0  0  0  0  0  0  0  0
   -2.6444   -1.9726    0.6616 H   0  0  0  0  0  0  0  0  0  0  0  0
    1.6309   -2.4724   -1.0017 H   0  0  0  0  0  0  0  0  0  0  0  0
    3.0735    1.3437   -0.2375 H   0  0  0  0  0  0  0  0  0  0  0  0
    0.7475    2.4434   -1.3805 H   0  0  0  0  0  0  0  0  0  0  0  0
   -1.3799    2.7225    0.4920 H   0  0  0  0  0  0  0  0  0  0  0  0
   -3.5927   -1.2626   -1.3154 H   0  0  0  0  0  0  0  0  0  0  0  0
  1  2  1  0  0  0  0
  2  3  1  0  0  0  0
  2  4  1  0  0  0  0
  4  5  1  0  0  0  0
  4  6  1  0  0  0  0
  6  7  1  0  0  0  0
  6  8  1  0  0  0  0
  8  9  1  0  0  0  0
  8 10  1  0  0  0  0
 10 11  1  0  0  0  0
  2 12  1  0  0  0  0
 10 12  1  0  0  0  0
 10 13  1  0  0  0  0
  8 14  1  0  0  0  0
  6 15  1  0  0  0  0
  4 16  1  0  0  0  0
  1 17  1  0  0  0  0
  1 18  1  0  0  0  0
  1 19  1  0  0  0  0
 13 20  1  0  0  0  0
 14 21  1  0  0  0  0
 15 22  1  0  0  0  0
 16 23  1  0  0  0  0
 17 24  1  0  0  0  0
M  END
