 xtb: 6.7.1 (edcfbbe)
          04052516073D

 27 27  0     0  0            999 V2000
   -2.9186    0.6193   -0.8121 C   0  0  0  0  0  0  0  0  0  0  0  0
   -1.9606    0.4812    0.3748 C   0  0  0  0  0  0  0  0  0  0  0  0
   -2.5614    0.5597    1.2898 H   0  0  0  0  0  0  0  0  0  0  0  0
   -0.8764    1.5602    0.3949 C   0  0  0  0  0  0  0  0  0  0  0  0
    0.2229    1.2726   -0.6257 C   0  0  0  0  0  0  0  0  0  0  0  0
    0.8354   -0.1384   -0.4666 C   0  0  0  0  0  0  0  0  0  0  0  0
    0.6916   -0.6891   -1.4017 H   0  0  0  0  0  0  0  0  0  0  0  0
    0.1222   -0.9390    0.6403 C   0  0  0  0  0  0  0  0  0  0  0  0
   -1.3575   -0.9066    0.4027 C   0  0  0  0  0  0  0  0  0  0  0  0
   -2.0237   -1.9120    0.2405 O   0  0  0  0  0  0  0  0  0  0  0  0
    2.3211   -0.0626   -0.2031 C   0  0  0  0  0  0  0  0  0  0  0  0
    3.1960   -0.4456   -1.1201 C   0  0  0  0  0  0  0  0  0  0  0  0
    2.7545    0.4765    1.1267 C   0  0  0  0  0  0  0  0  0  0  0  0
   -3.4670    1.5549   -0.7487 H   0  0  0  0  0  0  0  0  0  0  0  0
   -2.3715    0.5950   -1.7509 H   0  0  0  0  0  0  0  0  0  0  0  0
   -3.6258   -0.2068   -0.8095 H   0  0  0  0  0  0  0  0  0  0  0  0
   -1.3302    2.5268    0.1723 H   0  0  0  0  0  0  0  0  0  0  0  0
   -0.4442    1.6252    1.3943 H   0  0  0  0  0  0  0  0  0  0  0  0
   -0.1901    1.3699   -1.6299 H   0  0  0  0  0  0  0  0  0  0  0  0
    1.0054    2.0268   -0.5314 H   0  0  0  0  0  0  0  0  0  0  0  0
    0.4752   -1.9712    0.6434 H   0  0  0  0  0  0  0  0  0  0  0  0
    0.3230   -0.4900    1.6124 H   0  0  0  0  0  0  0  0  0  0  0  0
    4.2581   -0.3754   -0.9571 H   0  0  0  0  0  0  0  0  0  0  0  0
    2.8888   -0.8465   -2.0713 H   0  0  0  0  0  0  0  0  0  0  0  0
    2.6417   -0.2873    1.8952 H   0  0  0  0  0  0  0  0  0  0  0  0
    3.8005    0.7685    1.0955 H   0  0  0  0  0  0  0  0  0  0  0  0
    2.1571    1.3383    1.4137 H   0  0  0  0  0  0  0  0  0  0  0  0
  1  2  1  0  0  0  0
  2  3  1  0  0  0  0
  2  4  1  0  0  0  0
  4  5  1  0  0  0  0
  5  6  1  0  0  0  0
  6  7  1  0  0  0  0
  6  8  1  0  0  0  0
  2  9  1  0  0  0  0
  8  9  1  0  0  0  0
  9 10  2  0  0  0  0
  6 11  1  0  0  0  0
 11 12  2  0  0  0  0
 11 13  1  0  0  0  0
  1 14  1  0  0  0  0
  1 15  1  0  0  0  0
  1 16  1  0  0  0  0
  4 17  1  0  0  0  0
  4 18  1  0  0  0  0
  5 19  1  0  0  0  0
  5 20  1  0  0  0  0
  8 21  1  0  0  0  0
  8 22  1  0  0  0  0
 12 23  1  0  0  0  0
 12 24  1  0  0  0  0
 13 25  1  0  0  0  0
 13 26  1  0  0  0  0
 13 27  1  0  0  0  0
M  END
