 xtb: 6.7.1 (edcfbbe)
          04032521163D

 19 19  0     0  0            999 V2000
    2.4548    0.0255   -0.2861 C   0  0  0  0  0  0  0  0  0  0  0  0
    0.9956    0.1019    0.0364 C   0  0  0  0  0  0  0  0  0  0  0  0
    0.3036    1.2329    0.0674 C   0  0  0  0  0  0  0  0  0  0  0  0
   -1.1671    1.1933    0.3464 C   0  0  0  0  0  0  0  0  0  0  0  0
   -1.7622    0.0477   -0.4751 C   0  0  0  0  0  0  0  0  0  0  0  0
   -1.1504   -1.2950   -0.0684 C   0  0  0  0  0  0  0  0  0  0  0  0
    0.3153   -1.1875    0.4061 C   0  0  0  0  0  0  0  0  0  0  0  0
    2.6108   -0.5823   -1.1768 H   0  0  0  0  0  0  0  0  0  0  0  0
    2.9992   -0.4411    0.5341 H   0  0  0  0  0  0  0  0  0  0  0  0
    2.8656    1.0162   -0.4626 H   0  0  0  0  0  0  0  0  0  0  0  0
    0.7626    2.1843   -0.1579 H   0  0  0  0  0  0  0  0  0  0  0  0
   -1.3510    1.0108    1.4094 H   0  0  0  0  0  0  0  0  0  0  0  0
   -1.6391    2.1392    0.0787 H   0  0  0  0  0  0  0  0  0  0  0  0
   -2.8457    0.0113   -0.3524 H   0  0  0  0  0  0  0  0  0  0  0  0
   -1.5512    0.2441   -1.5286 H   0  0  0  0  0  0  0  0  0  0  0  0
   -1.7445   -1.7316    0.7361 H   0  0  0  0  0  0  0  0  0  0  0  0
   -1.2074   -1.9770   -0.9180 H   0  0  0  0  0  0  0  0  0  0  0  0
    0.3346   -1.2591    1.4981 H   0  0  0  0  0  0  0  0  0  0  0  0
    0.8909   -2.0309    0.0221 H   0  0  0  0  0  0  0  0  0  0  0  0
  1  2  1  0  0  0  0
  2  3  2  0  0  0  0
  3  4  1  0  0  0  0
  4  5  1  0  0  0  0
  5  6  1  0  0  0  0
  2  7  1  0  0  0  0
  6  7  1  0  0  0  0
  1  8  1  0  0  0  0
  1  9  1  0  0  0  0
  1 10  1  0  0  0  0
  3 11  1  0  0  0  0
  4 12  1  0  0  0  0
  4 13  1  0  0  0  0
  5 14  1  0  0  0  0
  5 15  1  0  0  0  0
  6 16  1  0  0  0  0
  6 17  1  0  0  0  0
  7 18  1  0  0  0  0
  7 19  1  0  0  0  0
M  END
