 xtb: 6.7.1 (edcfbbe)
          04062518003D

 24 24  0     0  0            999 V2000
   -2.1472   -1.0261   -0.4965 C   0  0  0  0  0  0  0  0  0  0  0  0
   -1.1797   -0.2394    0.3971 C   0  0  0  0  0  0  0  0  0  0  0  0
   -1.7413    0.0958    1.2778 H   0  0  0  0  0  0  0  0  0  0  0  0
   -0.6177    0.9717   -0.3625 C   0  0  0  0  0  0  0  0  0  0  0  0
   -0.4911    0.7230   -1.4230 H   0  0  0  0  0  0  0  0  0  0  0  0
    0.7604    1.3263    0.2107 C   0  0  0  0  0  0  0  0  0  0  0  0
    0.6899    1.4397    1.3054 H   0  0  0  0  0  0  0  0  0  0  0  0
    1.7152    0.1688   -0.0997 C   0  0  0  0  0  0  0  0  0  0  0  0
    1.9376    0.1862   -1.1771 H   0  0  0  0  0  0  0  0  0  0  0  0
    1.0390   -1.1809    0.2189 C   0  0  0  0  0  0  0  0  0  0  0  0
    1.7064   -1.7270    0.9000 H   0  0  0  0  0  0  0  0  0  0  0  0
   -0.1480   -1.0475    0.9571 O   0  0  0  0  0  0  0  0  0  0  0  0
    0.8487   -1.8686   -0.9779 O   0  0  0  0  0  0  0  0  0  0  0  0
    2.8995    0.2450    0.6489 O   0  0  0  0  0  0  0  0  0  0  0  0
    1.2709    2.5053   -0.3607 O   0  0  0  0  0  0  0  0  0  0  0  0
   -1.4824    2.0764   -0.3431 O   0  0  0  0  0  0  0  0  0  0  0  0
   -2.8768   -1.9323    0.2987 O   0  0  0  0  0  0  0  0  0  0  0  0
   -1.5757   -1.5458   -1.2733 H   0  0  0  0  0  0  0  0  0  0  0  0
   -2.8186   -0.2959   -0.9686 H   0  0  0  0  0  0  0  0  0  0  0  0
    0.6539   -2.8008   -0.7947 H   0  0  0  0  0  0  0  0  0  0  0  0
    3.3181    1.1024    0.4761 H   0  0  0  0  0  0  0  0  0  0  0  0
    0.5229    3.0804   -0.5918 H   0  0  0  0  0  0  0  0  0  0  0  0
   -1.7321    2.2864    0.5699 H   0  0  0  0  0  0  0  0  0  0  0  0
   -3.4724   -2.4440   -0.2665 H   0  0  0  0  0  0  0  0  0  0  0  0
  1  2  1  0  0  0  0
  2  3  1  0  0  0  0
  2  4  1  0  0  0  0
  4  5  1  0  0  0  0
  4  6  1  0  0  0  0
  6  7  1  0  0  0  0
  6  8  1  0  0  0  0
  8  9  1  0  0  0  0
  8 10  1  0  0  0  0
 10 11  1  0  0  0  0
  2 12  1  0  0  0  0
 10 12  1  0  0  0  0
 10 13  1  0  0  0  0
  8 14  1  0  0  0  0
  6 15  1  0  0  0  0
  4 16  1  0  0  0  0
  1 17  1  0  0  0  0
  1 18  1  0  0  0  0
  1 19  1  0  0  0  0
 13 20  1  0  0  0  0
 14 21  1  0  0  0  0
 15 22  1  0  0  0  0
 16 23  1  0  0  0  0
 17 24  1  0  0  0  0
M  END
