 xtb: 6.7.1 (edcfbbe)
          04062518003D

 24 24  0     0  0            999 V2000
   -2.3648   -0.9651    0.3985 C   0  0  0  0  0  0  0  0  0  0  0  0
   -1.0674   -0.2619    0.8226 C   0  0  0  0  0  0  0  0  0  0  0  0
   -1.2391    0.1821    1.8118 H   0  0  0  0  0  0  0  0  0  0  0  0
   -0.6844    0.8576   -0.1607 C   0  0  0  0  0  0  0  0  0  0  0  0
   -0.7463    0.4801   -1.1879 H   0  0  0  0  0  0  0  0  0  0  0  0
    0.7554    1.3007    0.1429 C   0  0  0  0  0  0  0  0  0  0  0  0
    0.8371    1.5769    1.2018 H   0  0  0  0  0  0  0  0  0  0  0  0
    1.7313    0.1327   -0.0936 C   0  0  0  0  0  0  0  0  0  0  0  0
    2.1029    0.1810   -1.1269 H   0  0  0  0  0  0  0  0  0  0  0  0
    0.9993   -1.2271    0.0486 C   0  0  0  0  0  0  0  0  0  0  0  0
    1.7068   -1.9734    0.4485 H   0  0  0  0  0  0  0  0  0  0  0  0
   -0.0147   -1.2086    1.0071 O   0  0  0  0  0  0  0  0  0  0  0  0
    0.5708   -1.6290   -1.2205 O   0  0  0  0  0  0  0  0  0  0  0  0
    2.7825    0.2682    0.8284 O   0  0  0  0  0  0  0  0  0  0  0  0
    1.1111    2.4584   -0.5633 O   0  0  0  0  0  0  0  0  0  0  0  0
   -1.5969    1.9211   -0.0949 O   0  0  0  0  0  0  0  0  0  0  0  0
   -2.1671   -1.6288   -0.8322 O   0  0  0  0  0  0  0  0  0  0  0  0
   -3.1396   -0.1964    0.3075 H   0  0  0  0  0  0  0  0  0  0  0  0
   -2.6386   -1.6843    1.1790 H   0  0  0  0  0  0  0  0  0  0  0  0
   -0.3475   -1.9608   -1.1646 H   0  0  0  0  0  0  0  0  0  0  0  0
    3.5142   -0.3196    0.5926 H   0  0  0  0  0  0  0  0  0  0  0  0
    0.9866    2.3169   -1.5133 H   0  0  0  0  0  0  0  0  0  0  0  0
   -1.4013    2.4775    0.6730 H   0  0  0  0  0  0  0  0  0  0  0  0
   -3.0034   -2.0142   -1.1275 H   0  0  0  0  0  0  0  0  0  0  0  0
  1  2  1  0  0  0  0
  2  3  1  0  0  0  0
  2  4  1  0  0  0  0
  4  5  1  0  0  0  0
  4  6  1  0  0  0  0
  6  7  1  0  0  0  0
  6  8  1  0  0  0  0
  8  9  1  0  0  0  0
  8 10  1  0  0  0  0
 10 11  1  0  0  0  0
  2 12  1  0  0  0  0
 10 12  1  0  0  0  0
 10 13  1  0  0  0  0
  8 14  1  0  0  0  0
  6 15  1  0  0  0  0
  4 16  1  0  0  0  0
  1 17  1  0  0  0  0
  1 18  1  0  0  0  0
  1 19  1  0  0  0  0
 13 20  1  0  0  0  0
 14 21  1  0  0  0  0
 15 22  1  0  0  0  0
 16 23  1  0  0  0  0
 17 24  1  0  0  0  0
M  END
