 xtb: 6.7.1 (edcfbbe)
          04062518003D

 24 24  0     0  0            999 V2000
   -2.2132   -0.9734   -0.4085 C   0  0  0  0  0  0  0  0  0  0  0  0
   -1.1751   -0.1964    0.4180 C   0  0  0  0  0  0  0  0  0  0  0  0
   -1.6669    0.2315    1.3001 H   0  0  0  0  0  0  0  0  0  0  0  0
   -0.5964    0.9603   -0.4075 C   0  0  0  0  0  0  0  0  0  0  0  0
   -0.4746    0.6393   -1.4563 H   0  0  0  0  0  0  0  0  0  0  0  0
    0.7840    1.3266    0.1538 C   0  0  0  0  0  0  0  0  0  0  0  0
    0.6967    1.5203    1.2288 H   0  0  0  0  0  0  0  0  0  0  0  0
    1.7370    0.1452   -0.0664 C   0  0  0  0  0  0  0  0  0  0  0  0
    2.0565    0.1309   -1.1211 H   0  0  0  0  0  0  0  0  0  0  0  0
    1.0050   -1.1897    0.1915 C   0  0  0  0  0  0  0  0  0  0  0  0
    1.6578   -1.8062    0.8261 H   0  0  0  0  0  0  0  0  0  0  0  0
   -0.1599   -1.0416    0.9556 O   0  0  0  0  0  0  0  0  0  0  0  0
    0.7663   -1.7908   -1.0431 O   0  0  0  0  0  0  0  0  0  0  0  0
    2.8539    0.1956    0.7823 O   0  0  0  0  0  0  0  0  0  0  0  0
    1.2632    2.5216   -0.4099 O   0  0  0  0  0  0  0  0  0  0  0  0
   -1.4882    2.0434   -0.3464 O   0  0  0  0  0  0  0  0  0  0  0  0
   -2.7980   -2.0434    0.2870 O   0  0  0  0  0  0  0  0  0  0  0  0
   -1.7322   -1.4141   -1.2839 H   0  0  0  0  0  0  0  0  0  0  0  0
   -2.9707   -0.2520   -0.7425 H   0  0  0  0  0  0  0  0  0  0  0  0
    0.4553   -2.6996   -0.9108 H   0  0  0  0  0  0  0  0  0  0  0  0
    3.2776    1.0645    0.7017 H   0  0  0  0  0  0  0  0  0  0  0  0
    1.4250    2.3966   -1.3578 H   0  0  0  0  0  0  0  0  0  0  0  0
   -0.9772    2.8656   -0.4375 H   0  0  0  0  0  0  0  0  0  0  0  0
   -3.2220   -1.7137    1.0916 H   0  0  0  0  0  0  0  0  0  0  0  0
  1  2  1  0  0  0  0
  2  3  1  0  0  0  0
  2  4  1  0  0  0  0
  4  5  1  0  0  0  0
  4  6  1  0  0  0  0
  6  7  1  0  0  0  0
  6  8  1  0  0  0  0
  8  9  1  0  0  0  0
  8 10  1  0  0  0  0
 10 11  1  0  0  0  0
  2 12  1  0  0  0  0
 10 12  1  0  0  0  0
 10 13  1  0  0  0  0
  8 14  1  0  0  0  0
  6 15  1  0  0  0  0
  4 16  1  0  0  0  0
  1 17  1  0  0  0  0
  1 18  1  0  0  0  0
  1 19  1  0  0  0  0
 13 20  1  0  0  0  0
 14 21  1  0  0  0  0
 15 22  1  0  0  0  0
 16 23  1  0  0  0  0
 17 24  1  0  0  0  0
M  END
