 xtb: 6.7.1 (edcfbbe)
          04032520533D

 12 12  0     0  0            999 V2000
    0.2353    1.3747   -0.0014 C   0  0  0  0  0  0  0  0  0  0  0  0
    1.3082    0.4835   -0.0010 C   0  0  0  0  0  0  0  0  0  0  0  0
    1.0729   -0.8911   -0.0002 C   0  0  0  0  0  0  0  0  0  0  0  0
   -0.2353   -1.3745   -0.0002 C   0  0  0  0  0  0  0  0  0  0  0  0
   -1.3082   -0.4834   -0.0004 C   0  0  0  0  0  0  0  0  0  0  0  0
   -1.0730    0.8913   -0.0008 C   0  0  0  0  0  0  0  0  0  0  0  0
   -2.3898    1.9847   -0.0000 Cl  0  0  0  0  0  0  0  0  0  0  0  0
   -2.9136   -1.0769    0.0002 Cl  0  0  0  0  0  0  0  0  0  0  0  0
   -0.5244   -3.0615    0.0003 Cl  0  0  0  0  0  0  0  0  0  0  0  0
    2.3895   -1.9847    0.0001 Cl  0  0  0  0  0  0  0  0  0  0  0  0
    2.9138    1.0766    0.0001 Cl  0  0  0  0  0  0  0  0  0  0  0  0
    0.5245    3.0617    0.0007 Cl  0  0  0  0  0  0  0  0  0  0  0  0
  1  2  4  0  0  0  0
  2  3  4  0  0  0  0
  3  4  4  0  0  0  0
  4  5  4  0  0  0  0
  1  6  4  0  0  0  0
  5  6  4  0  0  0  0
  6  7  1  0  0  0  0
  5  8  1  0  0  0  0
  4  9  1  0  0  0  0
  3 10  1  0  0  0  0
  2 11  1  0  0  0  0
  1 12  1  0  0  0  0
M  END
