 xtb: 6.7.1 (edcfbbe)
          04042523563D

 17 16  0     0  0            999 V2000
    2.1828    1.0306   -0.4240 C   0  0  0  0  0  0  0  0  0  0  0  0
    1.1670   -0.0866   -0.2402 C   0  0  0  0  0  0  0  0  0  0  0  0
    1.6183   -1.1201    0.7852 C   0  0  0  0  0  0  0  0  0  0  0  0
   -0.0589    0.5329    0.2132 O   0  0  0  0  0  0  0  0  0  0  0  0
   -1.2169   -0.0322   -0.0902 C   0  0  0  0  0  0  0  0  0  0  0  0
   -1.3202   -1.0477   -0.7501 O   0  0  0  0  0  0  0  0  0  0  0  0
   -2.3720    0.7337    0.4841 C   0  0  0  0  0  0  0  0  0  0  0  0
    2.3582    1.5260    0.5266 H   0  0  0  0  0  0  0  0  0  0  0  0
    3.1157    0.6160   -0.7913 H   0  0  0  0  0  0  0  0  0  0  0  0
    1.8128    1.7617   -1.1373 H   0  0  0  0  0  0  0  0  0  0  0  0
    0.9506   -0.5827   -1.1953 H   0  0  0  0  0  0  0  0  0  0  0  0
    1.7651   -0.6436    1.7510 H   0  0  0  0  0  0  0  0  0  0  0  0
    2.5503   -1.5718    0.4614 H   0  0  0  0  0  0  0  0  0  0  0  0
    0.8660   -1.8998    0.8842 H   0  0  0  0  0  0  0  0  0  0  0  0
   -3.1743    0.7802   -0.2461 H   0  0  0  0  0  0  0  0  0  0  0  0
   -2.0488    1.7265    0.7772 H   0  0  0  0  0  0  0  0  0  0  0  0
   -2.7393    0.1979    1.3567 H   0  0  0  0  0  0  0  0  0  0  0  0
  1  2  1  0  0  0  0
  2  3  1  0  0  0  0
  2  4  1  0  0  0  0
  4  5  1  0  0  0  0
  5  6  2  0  0  0  0
  5  7  1  0  0  0  0
  1  8  1  0  0  0  0
  1  9  1  0  0  0  0
  1 10  1  0  0  0  0
  2 11  1  0  0  0  0
  3 12  1  0  0  0  0
  3 13  1  0  0  0  0
  3 14  1  0  0  0  0
  7 15  1  0  0  0  0
  7 16  1  0  0  0  0
  7 17  1  0  0  0  0
M  END
