 xtb: 6.7.1 (edcfbbe)
          04062518003D

 24 24  0     0  0            999 V2000
   -2.1066   -1.1991   -0.2007 C   0  0  0  0  0  0  0  0  0  0  0  0
   -1.2623   -0.3360    0.7465 C   0  0  0  0  0  0  0  0  0  0  0  0
   -1.8633   -0.1423    1.6412 H   0  0  0  0  0  0  0  0  0  0  0  0
   -0.9136    1.0298    0.1215 C   0  0  0  0  0  0  0  0  0  0  0  0
   -1.1623    1.0198   -0.9517 H   0  0  0  0  0  0  0  0  0  0  0  0
    0.5954    1.2859    0.2626 C   0  0  0  0  0  0  0  0  0  0  0  0
    0.8417    1.3504    1.3296 H   0  0  0  0  0  0  0  0  0  0  0  0
    1.3314    0.1021   -0.3765 C   0  0  0  0  0  0  0  0  0  0  0  0
    0.9805   -0.0226   -1.4089 H   0  0  0  0  0  0  0  0  0  0  0  0
    0.9901   -1.1877    0.4146 C   0  0  0  0  0  0  0  0  0  0  0  0
    1.8122   -1.4274    1.1004 H   0  0  0  0  0  0  0  0  0  0  0  0
   -0.1209   -1.0077    1.2662 O   0  0  0  0  0  0  0  0  0  0  0  0
    0.8631   -2.2964   -0.4079 O   0  0  0  0  0  0  0  0  0  0  0  0
    2.7124    0.3145   -0.4916 O   0  0  0  0  0  0  0  0  0  0  0  0
    0.9544    2.5268   -0.2898 O   0  0  0  0  0  0  0  0  0  0  0  0
   -1.6706    2.0225    0.7695 O   0  0  0  0  0  0  0  0  0  0  0  0
   -1.4749   -1.3194   -1.4639 O   0  0  0  0  0  0  0  0  0  0  0  0
   -3.0791   -0.7093   -0.3072 H   0  0  0  0  0  0  0  0  0  0  0  0
   -2.2370   -2.1853    0.2589 H   0  0  0  0  0  0  0  0  0  0  0  0
    0.1127   -2.1440   -1.0215 H   0  0  0  0  0  0  0  0  0  0  0  0
    3.0942    0.5194    0.3740 H   0  0  0  0  0  0  0  0  0  0  0  0
    1.0690    2.4412   -1.2475 H   0  0  0  0  0  0  0  0  0  0  0  0
   -1.2713    2.8856    0.5754 H   0  0  0  0  0  0  0  0  0  0  0  0
   -2.0788   -1.7639   -2.0766 H   0  0  0  0  0  0  0  0  0  0  0  0
  1  2  1  0  0  0  0
  2  3  1  0  0  0  0
  2  4  1  0  0  0  0
  4  5  1  0  0  0  0
  4  6  1  0  0  0  0
  6  7  1  0  0  0  0
  6  8  1  0  0  0  0
  8  9  1  0  0  0  0
  8 10  1  0  0  0  0
 10 11  1  0  0  0  0
  2 12  1  0  0  0  0
 10 12  1  0  0  0  0
 10 13  1  0  0  0  0
  8 14  1  0  0  0  0
  6 15  1  0  0  0  0
  4 16  1  0  0  0  0
  1 17  1  0  0  0  0
  1 18  1  0  0  0  0
  1 19  1  0  0  0  0
 13 20  1  0  0  0  0
 14 21  1  0  0  0  0
 15 22  1  0  0  0  0
 16 23  1  0  0  0  0
 17 24  1  0  0  0  0
M  END
