 xtb: 6.7.1 (edcfbbe)
          04042523563D

 17 16  0     0  0            999 V2000
    1.7792    0.9102    0.6532 C   0  0  0  0  0  0  0  0  0  0  0  0
    1.2658    0.0697   -0.5098 C   0  0  0  0  0  0  0  0  0  0  0  0
    1.5113   -1.4201   -0.3030 C   0  0  0  0  0  0  0  0  0  0  0  0
   -0.1324    0.3412   -0.7797 O   0  0  0  0  0  0  0  0  0  0  0  0
   -1.0810    0.0802    0.1088 C   0  0  0  0  0  0  0  0  0  0  0  0
   -0.8916   -0.3878    1.2128 O   0  0  0  0  0  0  0  0  0  0  0  0
   -2.4368    0.4311   -0.4358 C   0  0  0  0  0  0  0  0  0  0  0  0
    1.5550    1.9607    0.4840 H   0  0  0  0  0  0  0  0  0  0  0  0
    1.3108    0.5949    1.5823 H   0  0  0  0  0  0  0  0  0  0  0  0
    2.8539    0.7859    0.7380 H   0  0  0  0  0  0  0  0  0  0  0  0
    1.7401    0.3974   -1.4413 H   0  0  0  0  0  0  0  0  0  0  0  0
    1.0414   -1.7556    0.6184 H   0  0  0  0  0  0  0  0  0  0  0  0
    2.5794   -1.6023   -0.2427 H   0  0  0  0  0  0  0  0  0  0  0  0
    1.1006   -1.9866   -1.1353 H   0  0  0  0  0  0  0  0  0  0  0  0
   -2.9602   -0.4916   -0.6760 H   0  0  0  0  0  0  0  0  0  0  0  0
   -2.3338    1.0367   -1.3294 H   0  0  0  0  0  0  0  0  0  0  0  0
   -3.0070    0.9525    0.3274 H   0  0  0  0  0  0  0  0  0  0  0  0
  1  2  1  0  0  0  0
  2  3  1  0  0  0  0
  2  4  1  0  0  0  0
  4  5  1  0  0  0  0
  5  6  2  0  0  0  0
  5  7  1  0  0  0  0
  1  8  1  0  0  0  0
  1  9  1  0  0  0  0
  1 10  1  0  0  0  0
  2 11  1  0  0  0  0
  3 12  1  0  0  0  0
  3 13  1  0  0  0  0
  3 14  1  0  0  0  0
  7 15  1  0  0  0  0
  7 16  1  0  0  0  0
  7 17  1  0  0  0  0
M  END
