 xtb: 6.7.1 (edcfbbe)
          04062518003D

 24 24  0     0  0            999 V2000
   -2.3653   -0.9694    0.3813 C   0  0  0  0  0  0  0  0  0  0  0  0
   -1.0729   -0.2584    0.8026 C   0  0  0  0  0  0  0  0  0  0  0  0
   -1.2606    0.2095    1.7774 H   0  0  0  0  0  0  0  0  0  0  0  0
   -0.6824    0.8496   -0.1797 C   0  0  0  0  0  0  0  0  0  0  0  0
   -0.7382    0.4736   -1.2124 H   0  0  0  0  0  0  0  0  0  0  0  0
    0.7569    1.3030    0.1234 C   0  0  0  0  0  0  0  0  0  0  0  0
    0.7890    1.6526    1.1629 H   0  0  0  0  0  0  0  0  0  0  0  0
    1.7474    0.1346   -0.0445 C   0  0  0  0  0  0  0  0  0  0  0  0
    2.1997    0.1729   -1.0411 H   0  0  0  0  0  0  0  0  0  0  0  0
    1.0003   -1.2187    0.0513 C   0  0  0  0  0  0  0  0  0  0  0  0
    1.7035   -1.9800    0.4303 H   0  0  0  0  0  0  0  0  0  0  0  0
   -0.0178   -1.1981    1.0103 O   0  0  0  0  0  0  0  0  0  0  0  0
    0.5680   -1.5718   -1.2276 O   0  0  0  0  0  0  0  0  0  0  0  0
    2.8227    0.2048    0.8535 O   0  0  0  0  0  0  0  0  0  0  0  0
    1.0849    2.4346   -0.6445 O   0  0  0  0  0  0  0  0  0  0  0  0
   -1.5860    1.9144   -0.0079 O   0  0  0  0  0  0  0  0  0  0  0  0
   -2.1691   -1.6417   -0.8446 O   0  0  0  0  0  0  0  0  0  0  0  0
   -3.1415   -0.2025    0.2914 H   0  0  0  0  0  0  0  0  0  0  0  0
   -2.6337   -1.6841    1.1680 H   0  0  0  0  0  0  0  0  0  0  0  0
   -0.3168   -1.9831   -1.1726 H   0  0  0  0  0  0  0  0  0  0  0  0
    2.5014    0.1089    1.7620 H   0  0  0  0  0  0  0  0  0  0  0  0
    1.2465    2.1757   -1.5635 H   0  0  0  0  0  0  0  0  0  0  0  0
   -1.1534    2.7259   -0.3214 H   0  0  0  0  0  0  0  0  0  0  0  0
   -3.0063   -2.0293   -1.1345 H   0  0  0  0  0  0  0  0  0  0  0  0
  1  2  1  0  0  0  0
  2  3  1  0  0  0  0
  2  4  1  0  0  0  0
  4  5  1  0  0  0  0
  4  6  1  0  0  0  0
  6  7  1  0  0  0  0
  6  8  1  0  0  0  0
  8  9  1  0  0  0  0
  8 10  1  0  0  0  0
 10 11  1  0  0  0  0
  2 12  1  0  0  0  0
 10 12  1  0  0  0  0
 10 13  1  0  0  0  0
  8 14  1  0  0  0  0
  6 15  1  0  0  0  0
  4 16  1  0  0  0  0
  1 17  1  0  0  0  0
  1 18  1  0  0  0  0
  1 19  1  0  0  0  0
 13 20  1  0  0  0  0
 14 21  1  0  0  0  0
 15 22  1  0  0  0  0
 16 23  1  0  0  0  0
 17 24  1  0  0  0  0
M  END
