 xtb: 6.7.1 (edcfbbe)
          04042520033D

 15 16  0     0  0            999 V2000
   -1.0737   -1.8724    0.0000 C   0  0  0  0  0  0  0  0  0  0  0  0
    0.2533   -1.4882    0.0001 C   0  0  0  0  0  0  0  0  0  0  0  0
    0.5514   -0.1270    0.0002 C   0  0  0  0  0  0  0  0  0  0  0  0
   -0.4472    0.8393    0.0002 C   0  0  0  0  0  0  0  0  0  0  0  0
   -1.7802    0.4400   -0.0000 C   0  0  0  0  0  0  0  0  0  0  0  0
   -2.0831   -0.9237   -0.0001 C   0  0  0  0  0  0  0  0  0  0  0  0
   -2.7252    1.3964   -0.0001 O   0  0  0  0  0  0  0  0  0  0  0  0
    1.9116    0.2896    0.0001 N   0  0  0  0  0  0  0  0  0  0  0  0
    2.7839   -0.5663   -0.0002 O   0  0  0  0  0  0  0  0  0  0  0  0
    2.1591    1.4858   -0.0001 O   0  0  0  0  0  0  0  0  0  0  0  0
   -1.3269   -2.9199   -0.0003 H   0  0  0  0  0  0  0  0  0  0  0  0
    1.0562   -2.2070    0.0001 H   0  0  0  0  0  0  0  0  0  0  0  0
   -0.1949    1.8875    0.0002 H   0  0  0  0  0  0  0  0  0  0  0  0
   -3.1140   -1.2431    0.0003 H   0  0  0  0  0  0  0  0  0  0  0  0
   -3.6188    1.0164   -0.0000 H   0  0  0  0  0  0  0  0  0  0  0  0
  1  2  4  0  0  0  0
  2  3  4  0  0  0  0
  3  4  4  0  0  0  0
  4  5  4  0  0  0  0
  1  6  4  0  0  0  0
  5  6  4  0  0  0  0
  5  7  1  0  0  0  0
  3  8  1  0  0  0  0
  8  9  4  0  0  0  0
  8 10  4  0  0  0  0
  9 10  1  0  0  0  0
  1 11  1  0  0  0  0
  2 12  1  0  0  0  0
  4 13  1  0  0  0  0
  6 14  1  0  0  0  0
  7 15  1  0  0  0  0
M  END
