 xtb: 6.7.1 (edcfbbe)
          04062518003D

 24 24  0     0  0            999 V2000
   -2.3987   -1.1866   -0.2076 C   0  0  0  0  0  0  0  0  0  0  0  0
   -1.0805   -0.6260    0.3616 C   0  0  0  0  0  0  0  0  0  0  0  0
   -1.1160   -0.5938    1.4632 H   0  0  0  0  0  0  0  0  0  0  0  0
   -0.8022    0.8077   -0.1181 C   0  0  0  0  0  0  0  0  0  0  0  0
   -0.9619    0.8693   -1.2040 H   0  0  0  0  0  0  0  0  0  0  0  0
    0.6468    1.2185    0.1837 C   0  0  0  0  0  0  0  0  0  0  0  0
    0.7580    1.3351    1.2747 H   0  0  0  0  0  0  0  0  0  0  0  0
    1.6348    0.1468   -0.2772 C   0  0  0  0  0  0  0  0  0  0  0  0
    1.5865    0.0472   -1.3719 H   0  0  0  0  0  0  0  0  0  0  0  0
    1.2240   -1.2001    0.3347 C   0  0  0  0  0  0  0  0  0  0  0  0
    1.2729   -1.1216    1.4423 H   0  0  0  0  0  0  0  0  0  0  0  0
   -0.0850   -1.5388   -0.0559 O   0  0  0  0  0  0  0  0  0  0  0  0
    2.0849   -2.1720   -0.1351 O   0  0  0  0  0  0  0  0  0  0  0  0
    2.9183    0.5381    0.1363 O   0  0  0  0  0  0  0  0  0  0  0  0
    0.8742    2.4501   -0.4555 O   0  0  0  0  0  0  0  0  0  0  0  0
   -1.6912    1.6546    0.5663 O   0  0  0  0  0  0  0  0  0  0  0  0
   -3.4354   -0.2553   -0.3356 O   0  0  0  0  0  0  0  0  0  0  0  0
   -2.7108   -2.0355    0.4155 H   0  0  0  0  0  0  0  0  0  0  0  0
   -2.1920   -1.5570   -1.2151 H   0  0  0  0  0  0  0  0  0  0  0  0
    1.7039   -3.0501    0.0209 H   0  0  0  0  0  0  0  0  0  0  0  0
    3.5481   -0.1635   -0.0859 H   0  0  0  0  0  0  0  0  0  0  0  0
    1.8085    2.6832   -0.3506 H   0  0  0  0  0  0  0  0  0  0  0  0
   -1.5302    2.5650    0.2770 H   0  0  0  0  0  0  0  0  0  0  0  0
   -3.4897    0.2847    0.4671 H   0  0  0  0  0  0  0  0  0  0  0  0
  1  2  1  0  0  0  0
  2  3  1  0  0  0  0
  2  4  1  0  0  0  0
  4  5  1  0  0  0  0
  4  6  1  0  0  0  0
  6  7  1  0  0  0  0
  6  8  1  0  0  0  0
  8  9  1  0  0  0  0
  8 10  1  0  0  0  0
 10 11  1  0  0  0  0
  2 12  1  0  0  0  0
 10 12  1  0  0  0  0
 10 13  1  0  0  0  0
  8 14  1  0  0  0  0
  6 15  1  0  0  0  0
  4 16  1  0  0  0  0
  1 17  1  0  0  0  0
  1 18  1  0  0  0  0
  1 19  1  0  0  0  0
 13 20  1  0  0  0  0
 14 21  1  0  0  0  0
 15 22  1  0  0  0  0
 16 23  1  0  0  0  0
 17 24  1  0  0  0  0
M  END
