 xtb: 6.7.1 (edcfbbe)
          04052516073D

 27 27  0     0  0            999 V2000
   -3.3891    0.5451   -0.0512 C   0  0  0  0  0  0  0  0  0  0  0  0
   -1.9054    0.5542    0.2998 C   0  0  0  0  0  0  0  0  0  0  0  0
   -1.7725    0.9704    1.3041 H   0  0  0  0  0  0  0  0  0  0  0  0
   -1.0932    1.4078   -0.6883 C   0  0  0  0  0  0  0  0  0  0  0  0
    0.3915    1.3928   -0.3458 C   0  0  0  0  0  0  0  0  0  0  0  0
    0.9273   -0.0427   -0.3669 C   0  0  0  0  0  0  0  0  0  0  0  0
    0.7404   -0.4588   -1.3635 H   0  0  0  0  0  0  0  0  0  0  0  0
    0.1426   -0.8880    0.6528 C   0  0  0  0  0  0  0  0  0  0  0  0
   -1.3219   -0.8408    0.3120 C   0  0  0  0  0  0  0  0  0  0  0  0
   -1.9653   -1.8360    0.0420 O   0  0  0  0  0  0  0  0  0  0  0  0
    2.4160   -0.0892   -0.1156 C   0  0  0  0  0  0  0  0  0  0  0  0
    3.2591   -0.3556   -1.1017 C   0  0  0  0  0  0  0  0  0  0  0  0
    2.8945    0.1896    1.2765 C   0  0  0  0  0  0  0  0  0  0  0  0
   -3.5382    0.1187   -1.0408 H   0  0  0  0  0  0  0  0  0  0  0  0
   -3.9407   -0.0640    0.6608 H   0  0  0  0  0  0  0  0  0  0  0  0
   -3.7887    1.5552   -0.0383 H   0  0  0  0  0  0  0  0  0  0  0  0
   -1.2432    1.0169   -1.6974 H   0  0  0  0  0  0  0  0  0  0  0  0
   -1.4731    2.4301   -0.6661 H   0  0  0  0  0  0  0  0  0  0  0  0
    0.9428    1.9928   -1.0715 H   0  0  0  0  0  0  0  0  0  0  0  0
    0.5417    1.8319    0.6414 H   0  0  0  0  0  0  0  0  0  0  0  0
    0.4865   -1.9235    0.6371 H   0  0  0  0  0  0  0  0  0  0  0  0
    0.2822   -0.4756    1.6522 H   0  0  0  0  0  0  0  0  0  0  0  0
    4.3250   -0.3716   -0.9502 H   0  0  0  0  0  0  0  0  0  0  0  0
    2.9203   -0.5686   -2.1017 H   0  0  0  0  0  0  0  0  0  0  0  0
    2.6391   -0.6385    1.9358 H   0  0  0  0  0  0  0  0  0  0  0  0
    3.9736    0.3124    1.2877 H   0  0  0  0  0  0  0  0  0  0  0  0
    2.4364    1.0926    1.6727 H   0  0  0  0  0  0  0  0  0  0  0  0
  1  2  1  0  0  0  0
  2  3  1  0  0  0  0
  2  4  1  0  0  0  0
  4  5  1  0  0  0  0
  5  6  1  0  0  0  0
  6  7  1  0  0  0  0
  6  8  1  0  0  0  0
  2  9  1  0  0  0  0
  8  9  1  0  0  0  0
  9 10  2  0  0  0  0
  6 11  1  0  0  0  0
 11 12  2  0  0  0  0
 11 13  1  0  0  0  0
  1 14  1  0  0  0  0
  1 15  1  0  0  0  0
  1 16  1  0  0  0  0
  4 17  1  0  0  0  0
  4 18  1  0  0  0  0
  5 19  1  0  0  0  0
  5 20  1  0  0  0  0
  8 21  1  0  0  0  0
  8 22  1  0  0  0  0
 12 23  1  0  0  0  0
 12 24  1  0  0  0  0
 13 25  1  0  0  0  0
 13 26  1  0  0  0  0
 13 27  1  0  0  0  0
M  END
