 xtb: 6.7.1 (edcfbbe)
          04032521523D

 16 16  0     0  0            999 V2000
    0.7276   -1.1920   -0.2320 C   0  0  0  0  0  0  0  0  0  0  0  0
   -0.7278   -1.1920    0.2319 C   0  0  0  0  0  0  0  0  0  0  0  0
   -1.3813    0.0002   -0.2843 N   0  0  0  0  0  0  0  0  0  0  0  0
   -0.7275    1.1921    0.2321 C   0  0  0  0  0  0  0  0  0  0  0  0
    0.7277    1.1919   -0.2321 C   0  0  0  0  0  0  0  0  0  0  0  0
    1.3812   -0.0001    0.2844 N   0  0  0  0  0  0  0  0  0  0  0  0
    0.7414   -1.2274   -1.3348 H   0  0  0  0  0  0  0  0  0  0  0  0
    1.2421   -2.0717    0.1586 H   0  0  0  0  0  0  0  0  0  0  0  0
   -1.2423   -2.0715   -0.1589 H   0  0  0  0  0  0  0  0  0  0  0  0
   -0.7416   -1.2276    1.3347 H   0  0  0  0  0  0  0  0  0  0  0  0
   -2.3592    0.0002   -0.0130 H   0  0  0  0  0  0  0  0  0  0  0  0
   -1.2420    2.0718   -0.1583 H   0  0  0  0  0  0  0  0  0  0  0  0
   -0.7410    1.2272    1.3349 H   0  0  0  0  0  0  0  0  0  0  0  0
    0.7412    1.2269   -1.3350 H   0  0  0  0  0  0  0  0  0  0  0  0
    1.2424    2.0716    0.1580 H   0  0  0  0  0  0  0  0  0  0  0  0
    2.3592   -0.0002    0.0138 H   0  0  0  0  0  0  0  0  0  0  0  0
  1  2  1  0  0  0  0
  2  3  1  0  0  0  0
  3  4  1  0  0  0  0
  4  5  1  0  0  0  0
  1  6  1  0  0  0  0
  5  6  1  0  0  0  0
  1  7  1  0  0  0  0
  1  8  1  0  0  0  0
  2  9  1  0  0  0  0
  2 10  1  0  0  0  0
  3 11  1  0  0  0  0
  4 12  1  0  0  0  0
  4 13  1  0  0  0  0
  5 14  1  0  0  0  0
  5 15  1  0  0  0  0
  6 16  1  0  0  0  0
M  END
