 xtb: 6.7.1 (edcfbbe)
          04042522043D

 17 17  0     0  0            999 V2000
    2.7486   -0.0124    0.7283 C   0  0  0  0  0  0  0  0  0  0  0  0
    1.9712   -0.0140   -0.5904 C   0  0  0  0  0  0  0  0  0  0  0  0
    0.4958    0.0203   -0.3265 C   0  0  0  0  0  0  0  0  0  0  0  0
   -0.1909    1.2199   -0.1760 C   0  0  0  0  0  0  0  0  0  0  0  0
   -1.5459    1.1958    0.1088 C   0  0  0  0  0  0  0  0  0  0  0  0
   -2.1696   -0.0355    0.2368 C   0  0  0  0  0  0  0  0  0  0  0  0
   -1.5325   -1.1882    0.0980 N   0  0  0  0  0  0  0  0  0  0  0  0
   -0.2384   -1.1519   -0.1747 C   0  0  0  0  0  0  0  0  0  0  0  0
    2.4788   -0.8794    1.3269 H   0  0  0  0  0  0  0  0  0  0  0  0
    2.5217    0.8836    1.3015 H   0  0  0  0  0  0  0  0  0  0  0  0
    3.8176   -0.0410    0.5349 H   0  0  0  0  0  0  0  0  0  0  0  0
    2.2217   -0.9132   -1.1555 H   0  0  0  0  0  0  0  0  0  0  0  0
    2.2589    0.8580   -1.1801 H   0  0  0  0  0  0  0  0  0  0  0  0
    0.3311    2.1599   -0.2845 H   0  0  0  0  0  0  0  0  0  0  0  0
   -2.1069    2.1090    0.2284 H   0  0  0  0  0  0  0  0  0  0  0  0
   -3.2256   -0.1113    0.4585 H   0  0  0  0  0  0  0  0  0  0  0  0
    0.2384   -2.1182   -0.2812 H   0  0  0  0  0  0  0  0  0  0  0  0
  1  2  1  0  0  0  0
  2  3  1  0  0  0  0
  3  4  4  0  0  0  0
  4  5  4  0  0  0  0
  5  6  4  0  0  0  0
  6  7  4  0  0  0  0
  3  8  4  0  0  0  0
  7  8  4  0  0  0  0
  1  9  1  0  0  0  0
  1 10  1  0  0  0  0
  1 11  1  0  0  0  0
  2 12  1  0  0  0  0
  2 13  1  0  0  0  0
  4 14  1  0  0  0  0
  5 15  1  0  0  0  0
  6 16  1  0  0  0  0
  8 17  1  0  0  0  0
M  END
