 xtb: 6.7.1 (edcfbbe)
          04062518003D

 24 24  0     0  0            999 V2000
   -1.8363   -0.9834   -0.8081 C   0  0  0  0  0  0  0  0  0  0  0  0
   -1.2977   -0.1657    0.3812 C   0  0  0  0  0  0  0  0  0  0  0  0
   -2.1035   -0.0653    1.1157 H   0  0  0  0  0  0  0  0  0  0  0  0
   -0.8124    1.2344   -0.0576 C   0  0  0  0  0  0  0  0  0  0  0  0
   -0.9898    1.3682   -1.1307 H   0  0  0  0  0  0  0  0  0  0  0  0
    0.6992    1.3675    0.1929 C   0  0  0  0  0  0  0  0  0  0  0  0
    0.8872    1.4416    1.2767 H   0  0  0  0  0  0  0  0  0  0  0  0
    1.4102    0.1185   -0.3358 C   0  0  0  0  0  0  0  0  0  0  0  0
    1.1587   -0.0002   -1.4014 H   0  0  0  0  0  0  0  0  0  0  0  0
    0.9102   -1.1107    0.4514 C   0  0  0  0  0  0  0  0  0  0  0  0
    1.6327   -1.3139    1.2550 H   0  0  0  0  0  0  0  0  0  0  0  0
   -0.2919   -0.8656    1.1137 O   0  0  0  0  0  0  0  0  0  0  0  0
    0.7580   -2.2377   -0.3710 O   0  0  0  0  0  0  0  0  0  0  0  0
    2.8016    0.1940   -0.1723 O   0  0  0  0  0  0  0  0  0  0  0  0
    1.2401    2.4841   -0.4690 O   0  0  0  0  0  0  0  0  0  0  0  0
   -1.5194    2.2823    0.5560 O   0  0  0  0  0  0  0  0  0  0  0  0
   -2.2449   -2.2685   -0.4217 O   0  0  0  0  0  0  0  0  0  0  0  0
   -1.0749   -1.0459   -1.5951 H   0  0  0  0  0  0  0  0  0  0  0  0
   -2.7224   -0.4822   -1.2020 H   0  0  0  0  0  0  0  0  0  0  0  0
    1.6213   -2.6187   -0.5827 H   0  0  0  0  0  0  0  0  0  0  0  0
    3.0998    1.0545   -0.5073 H   0  0  0  0  0  0  0  0  0  0  0  0
    0.6801    3.2550   -0.2938 H   0  0  0  0  0  0  0  0  0  0  0  0
   -1.4811    2.1897    1.5196 H   0  0  0  0  0  0  0  0  0  0  0  0
   -1.4627   -2.7417   -0.0964 H   0  0  0  0  0  0  0  0  0  0  0  0
  1  2  1  0  0  0  0
  2  3  1  0  0  0  0
  2  4  1  0  0  0  0
  4  5  1  0  0  0  0
  4  6  1  0  0  0  0
  6  7  1  0  0  0  0
  6  8  1  0  0  0  0
  8  9  1  0  0  0  0
  8 10  1  0  0  0  0
 10 11  1  0  0  0  0
  2 12  1  0  0  0  0
 10 12  1  0  0  0  0
 10 13  1  0  0  0  0
  8 14  1  0  0  0  0
  6 15  1  0  0  0  0
  4 16  1  0  0  0  0
  1 17  1  0  0  0  0
  1 18  1  0  0  0  0
  1 19  1  0  0  0  0
 13 20  1  0  0  0  0
 14 21  1  0  0  0  0
 15 22  1  0  0  0  0
 16 23  1  0  0  0  0
 17 24  1  0  0  0  0
M  END
