 xtb: 6.7.1 (edcfbbe)
          04032521513D

 23 25  0     0  0            999 V2000
   -3.4268   -0.1219    0.0004 C   0  0  0  0  0  0  0  0  0  0  0  0
   -2.9891    1.1945    0.0003 C   0  0  0  0  0  0  0  0  0  0  0  0
   -1.6362    1.4921   -0.0001 C   0  0  0  0  0  0  0  0  0  0  0  0
   -0.7268    0.4464   -0.0003 C   0  0  0  0  0  0  0  0  0  0  0  0
   -1.1708   -0.8855   -0.0002 C   0  0  0  0  0  0  0  0  0  0  0  0
   -2.5198   -1.1729    0.0001 C   0  0  0  0  0  0  0  0  0  0  0  0
   -0.0000   -1.8243   -0.0003 C   0  0  0  0  0  0  0  0  0  0  0  0
    1.1708   -0.8855   -0.0001 C   0  0  0  0  0  0  0  0  0  0  0  0
    0.7268    0.4464   -0.0004 C   0  0  0  0  0  0  0  0  0  0  0  0
    1.6362    1.4921   -0.0004 C   0  0  0  0  0  0  0  0  0  0  0  0
    2.9892    1.1945    0.0001 C   0  0  0  0  0  0  0  0  0  0  0  0
    3.4268   -0.1219    0.0005 C   0  0  0  0  0  0  0  0  0  0  0  0
    2.5198   -1.1730    0.0003 C   0  0  0  0  0  0  0  0  0  0  0  0
   -4.4864   -0.3307    0.0009 H   0  0  0  0  0  0  0  0  0  0  0  0
   -3.7130    1.9961    0.0006 H   0  0  0  0  0  0  0  0  0  0  0  0
   -1.2988    2.5178   -0.0001 H   0  0  0  0  0  0  0  0  0  0  0  0
   -2.8680   -2.1954    0.0002 H   0  0  0  0  0  0  0  0  0  0  0  0
   -0.0001   -2.4704    0.8799 H   0  0  0  0  0  0  0  0  0  0  0  0
    0.0001   -2.4699   -0.8810 H   0  0  0  0  0  0  0  0  0  0  0  0
    1.2989    2.5178   -0.0002 H   0  0  0  0  0  0  0  0  0  0  0  0
    3.7131    1.9960    0.0004 H   0  0  0  0  0  0  0  0  0  0  0  0
    4.4863   -0.3308    0.0009 H   0  0  0  0  0  0  0  0  0  0  0  0
    2.8679   -2.1954    0.0004 H   0  0  0  0  0  0  0  0  0  0  0  0
  1  2  4  0  0  0  0
  2  3  4  0  0  0  0
  3  4  4  0  0  0  0
  4  5  4  0  0  0  0
  1  6  4  0  0  0  0
  5  6  4  0  0  0  0
  5  7  1  0  0  0  0
  7  8  1  0  0  0  0
  4  9  1  0  0  0  0
  8  9  4  0  0  0  0
  9 10  4  0  0  0  0
 10 11  4  0  0  0  0
 11 12  4  0  0  0  0
  8 13  4  0  0  0  0
 12 13  4  0  0  0  0
  1 14  1  0  0  0  0
  2 15  1  0  0  0  0
  3 16  1  0  0  0  0
  6 17  1  0  0  0  0
  7 18  1  0  0  0  0
  7 19  1  0  0  0  0
 10 20  1  0  0  0  0
 11 21  1  0  0  0  0
 12 22  1  0  0  0  0
 13 23  1  0  0  0  0
M  END
