 xtb: 6.7.1 (edcfbbe)
          04032521123D

 18 18  0     0  0            999 V2000
   -0.6920   -3.0127   -0.0046 C   0  0  0  0  0  0  0  0  0  0  0  0
    0.6914   -3.0129    0.0046 C   0  0  0  0  0  0  0  0  0  0  0  0
    1.3858   -1.8141    0.0122 C   0  0  0  0  0  0  0  0  0  0  0  0
    0.6996   -0.6059    0.0115 C   0  0  0  0  0  0  0  0  0  0  0  0
   -0.6996   -0.6057   -0.0119 C   0  0  0  0  0  0  0  0  0  0  0  0
   -1.3861   -1.8138   -0.0124 C   0  0  0  0  0  0  0  0  0  0  0  0
   -1.5009    0.6674   -0.0028 C   0  0  0  0  0  0  0  0  0  0  0  0
   -1.5716    1.2274    1.2240 F   0  0  0  0  0  0  0  0  0  0  0  0
   -1.0292    1.6196   -0.8269 F   0  0  0  0  0  0  0  0  0  0  0  0
   -2.7761    0.4711   -0.3776 F   0  0  0  0  0  0  0  0  0  0  0  0
    1.5011    0.6671    0.0027 C   0  0  0  0  0  0  0  0  0  0  0  0
    1.0301    1.6186    0.8281 F   0  0  0  0  0  0  0  0  0  0  0  0
    2.7765    0.4704    0.3763 F   0  0  0  0  0  0  0  0  0  0  0  0
    1.5708    1.2283   -1.2236 F   0  0  0  0  0  0  0  0  0  0  0  0
   -1.2388   -3.9411   -0.0068 H   0  0  0  0  0  0  0  0  0  0  0  0
    1.2380   -3.9414    0.0070 H   0  0  0  0  0  0  0  0  0  0  0  0
    2.4638   -1.8095    0.0240 H   0  0  0  0  0  0  0  0  0  0  0  0
   -2.4641   -1.8089   -0.0242 H   0  0  0  0  0  0  0  0  0  0  0  0
  1  2  4  0  0  0  0
  2  3  4  0  0  0  0
  3  4  4  0  0  0  0
  4  5  4  0  0  0  0
  1  6  4  0  0  0  0
  5  6  4  0  0  0  0
  5  7  1  0  0  0  0
  7  8  1  0  0  0  0
  7  9  1  0  0  0  0
  7 10  1  0  0  0  0
  4 11  1  0  0  0  0
 11 12  1  0  0  0  0
 11 13  1  0  0  0  0
 11 14  1  0  0  0  0
  1 15  1  0  0  0  0
  2 16  1  0  0  0  0
  3 17  1  0  0  0  0
  6 18  1  0  0  0  0
M  END
