 xtb: 6.7.1 (edcfbbe)
          04032522133D

 11 10  0     0  0            999 V2000
    1.8169   -0.4824    0.5069 C   0  0  0  0  0  0  0  0  0  0  0  0
    0.8326   -0.3442   -0.6605 C   0  0  0  0  0  0  0  0  0  0  0  0
   -0.4753    0.2085   -0.1509 C   0  0  0  0  0  0  0  0  0  0  0  0
   -0.7795    1.3781   -0.2198 O   0  0  0  0  0  0  0  0  0  0  0  0
   -1.3012   -0.6577    0.4317 O   0  0  0  0  0  0  0  0  0  0  0  0
    1.4295   -1.1458    1.2757 H   0  0  0  0  0  0  0  0  0  0  0  0
    2.7594   -0.8816    0.1443 H   0  0  0  0  0  0  0  0  0  0  0  0
    2.0012    0.4906    0.9558 H   0  0  0  0  0  0  0  0  0  0  0  0
    1.2324    0.3551   -1.3942 H   0  0  0  0  0  0  0  0  0  0  0  0
    0.6743   -1.3123   -1.1361 H   0  0  0  0  0  0  0  0  0  0  0  0
   -0.9769   -1.5768    0.4188 H   0  0  0  0  0  0  0  0  0  0  0  0
  1  2  1  0  0  0  0
  2  3  1  0  0  0  0
  3  4  2  0  0  0  0
  3  5  1  0  0  0  0
  1  6  1  0  0  0  0
  1  7  1  0  0  0  0
  1  8  1  0  0  0  0
  2  9  1  0  0  0  0
  2 10  1  0  0  0  0
  5 11  1  0  0  0  0
M  END
