 xtb: 6.7.1 (edcfbbe)
          04062518003D

 24 24  0     0  0            999 V2000
   -2.2135   -0.6246   -0.7150 C   0  0  0  0  0  0  0  0  0  0  0  0
   -1.3847   -0.4730    0.5786 C   0  0  0  0  0  0  0  0  0  0  0  0
   -2.0583   -0.7038    1.4159 H   0  0  0  0  0  0  0  0  0  0  0  0
   -0.8680    0.9541    0.8104 C   0  0  0  0  0  0  0  0  0  0  0  0
   -1.6797    1.6458    0.5443 H   0  0  0  0  0  0  0  0  0  0  0  0
    0.3455    1.3156   -0.0718 C   0  0  0  0  0  0  0  0  0  0  0  0
    1.0156    1.9600    0.5163 H   0  0  0  0  0  0  0  0  0  0  0  0
    1.1619    0.0745   -0.4570 C   0  0  0  0  0  0  0  0  0  0  0  0
    0.7896   -0.3422   -1.4056 H   0  0  0  0  0  0  0  0  0  0  0  0
    0.9704   -1.0103    0.6109 C   0  0  0  0  0  0  0  0  0  0  0  0
    1.2531   -0.6066    1.6048 H   0  0  0  0  0  0  0  0  0  0  0  0
   -0.3598   -1.4614    0.6422 O   0  0  0  0  0  0  0  0  0  0  0  0
    1.7794   -2.0855    0.2759 O   0  0  0  0  0  0  0  0  0  0  0  0
    2.5100    0.4555   -0.5728 O   0  0  0  0  0  0  0  0  0  0  0  0
   -0.1342    2.0155   -1.1968 O   0  0  0  0  0  0  0  0  0  0  0  0
   -0.5612    1.0608    2.1817 O   0  0  0  0  0  0  0  0  0  0  0  0
   -1.5565   -0.2863   -1.9068 O   0  0  0  0  0  0  0  0  0  0  0  0
   -3.1309   -0.0334   -0.5970 H   0  0  0  0  0  0  0  0  0  0  0  0
   -2.4791   -1.6792   -0.8141 H   0  0  0  0  0  0  0  0  0  0  0  0
    1.4673   -2.8754    0.7422 H   0  0  0  0  0  0  0  0  0  0  0  0
    3.0485   -0.3434   -0.6751 H   0  0  0  0  0  0  0  0  0  0  0  0
    0.6170    2.2992   -1.7382 H   0  0  0  0  0  0  0  0  0  0  0  0
   -0.4698    1.9921    2.4312 H   0  0  0  0  0  0  0  0  0  0  0  0
   -1.3086    0.6573   -1.8840 H   0  0  0  0  0  0  0  0  0  0  0  0
  1  2  1  0  0  0  0
  2  3  1  0  0  0  0
  2  4  1  0  0  0  0
  4  5  1  0  0  0  0
  4  6  1  0  0  0  0
  6  7  1  0  0  0  0
  6  8  1  0  0  0  0
  8  9  1  0  0  0  0
  8 10  1  0  0  0  0
 10 11  1  0  0  0  0
  2 12  1  0  0  0  0
 10 12  1  0  0  0  0
 10 13  1  0  0  0  0
  8 14  1  0  0  0  0
  6 15  1  0  0  0  0
  4 16  1  0  0  0  0
  1 17  1  0  0  0  0
  1 18  1  0  0  0  0
  1 19  1  0  0  0  0
 13 20  1  0  0  0  0
 14 21  1  0  0  0  0
 15 22  1  0  0  0  0
 16 23  1  0  0  0  0
 17 24  1  0  0  0  0
M  END
