 xtb: 6.7.1 (edcfbbe)
          04062518003D

 24 24  0     0  0            999 V2000
   -2.1630   -0.8679   -0.2463 C   0  0  0  0  0  0  0  0  0  0  0  0
   -1.1582   -0.3180    0.7864 C   0  0  0  0  0  0  0  0  0  0  0  0
   -1.6846   -0.3174    1.7489 H   0  0  0  0  0  0  0  0  0  0  0  0
   -0.7231    1.1423    0.5322 C   0  0  0  0  0  0  0  0  0  0  0  0
   -1.5731    1.6852    0.1035 H   0  0  0  0  0  0  0  0  0  0  0  0
    0.4674    1.2706   -0.4356 C   0  0  0  0  0  0  0  0  0  0  0  0
    0.8860    2.2772   -0.2819 H   0  0  0  0  0  0  0  0  0  0  0  0
    1.5729    0.2667   -0.0610 C   0  0  0  0  0  0  0  0  0  0  0  0
    2.3047    0.2114   -0.8810 H   0  0  0  0  0  0  0  0  0  0  0  0
    1.0304   -1.1679    0.1517 C   0  0  0  0  0  0  0  0  0  0  0  0
    1.8004   -1.7497    0.6815 H   0  0  0  0  0  0  0  0  0  0  0  0
   -0.0616   -1.2001    1.0294 O   0  0  0  0  0  0  0  0  0  0  0  0
    0.8253   -1.8280   -1.0546 O   0  0  0  0  0  0  0  0  0  0  0  0
    2.1655    0.7650    1.1160 O   0  0  0  0  0  0  0  0  0  0  0  0
    0.0035    1.1286   -1.7531 O   0  0  0  0  0  0  0  0  0  0  0  0
   -0.4385    1.7937    1.7454 O   0  0  0  0  0  0  0  0  0  0  0  0
   -1.6880   -0.9823   -1.5667 O   0  0  0  0  0  0  0  0  0  0  0  0
   -3.0551   -0.2321   -0.2161 H   0  0  0  0  0  0  0  0  0  0  0  0
   -2.4378   -1.8813    0.0556 H   0  0  0  0  0  0  0  0  0  0  0  0
   -0.0816   -1.6326   -1.3981 H   0  0  0  0  0  0  0  0  0  0  0  0
    2.9158    0.2120    1.3757 H   0  0  0  0  0  0  0  0  0  0  0  0
    0.7146    1.3164   -2.3819 H   0  0  0  0  0  0  0  0  0  0  0  0
    0.4098    1.4638    2.0858 H   0  0  0  0  0  0  0  0  0  0  0  0
   -1.3949   -0.1064   -1.8851 H   0  0  0  0  0  0  0  0  0  0  0  0
  1  2  1  0  0  0  0
  2  3  1  0  0  0  0
  2  4  1  0  0  0  0
  4  5  1  0  0  0  0
  4  6  1  0  0  0  0
  6  7  1  0  0  0  0
  6  8  1  0  0  0  0
  8  9  1  0  0  0  0
  8 10  1  0  0  0  0
 10 11  1  0  0  0  0
  2 12  1  0  0  0  0
 10 12  1  0  0  0  0
 10 13  1  0  0  0  0
  8 14  1  0  0  0  0
  6 15  1  0  0  0  0
  4 16  1  0  0  0  0
  1 17  1  0  0  0  0
  1 18  1  0  0  0  0
  1 19  1  0  0  0  0
 13 20  1  0  0  0  0
 14 21  1  0  0  0  0
 15 22  1  0  0  0  0
 16 23  1  0  0  0  0
 17 24  1  0  0  0  0
M  END
