 xtb: 6.7.1 (edcfbbe)
          04052503093D

 19 19  0     0  0            999 V2000
   -3.3634   -0.1540   -0.0484 C   0  0  0  0  0  0  0  0  0  0  0  0
   -2.1787    0.7969    0.0637 C   0  0  0  0  0  0  0  0  0  0  0  0
   -0.8177    0.1510    0.0061 C   0  0  0  0  0  0  0  0  0  0  0  0
   -0.6234   -1.2134   -0.1496 C   0  0  0  0  0  0  0  0  0  0  0  0
    0.6593   -1.7374   -0.1946 C   0  0  0  0  0  0  0  0  0  0  0  0
    1.7637   -0.9180   -0.0861 C   0  0  0  0  0  0  0  0  0  0  0  0
    1.5822    0.4536    0.0705 C   0  0  0  0  0  0  0  0  0  0  0  0
    0.2985    0.9752    0.1153 C   0  0  0  0  0  0  0  0  0  0  0  0
    2.6910    1.2393    0.1750 O   0  0  0  0  0  0  0  0  0  0  0  0
   -3.3563   -0.8784    0.7624 H   0  0  0  0  0  0  0  0  0  0  0  0
   -3.3454   -0.6856   -0.9967 H   0  0  0  0  0  0  0  0  0  0  0  0
   -4.2912    0.4104    0.0075 H   0  0  0  0  0  0  0  0  0  0  0  0
   -2.2530    1.3477    1.0059 H   0  0  0  0  0  0  0  0  0  0  0  0
   -2.2380    1.5347   -0.7419 H   0  0  0  0  0  0  0  0  0  0  0  0
   -1.4645   -1.8808   -0.2371 H   0  0  0  0  0  0  0  0  0  0  0  0
    0.7980   -2.8013   -0.3160 H   0  0  0  0  0  0  0  0  0  0  0  0
    2.7674   -1.3113   -0.1194 H   0  0  0  0  0  0  0  0  0  0  0  0
    0.1573    2.0408    0.2370 H   0  0  0  0  0  0  0  0  0  0  0  0
    2.4379    2.1688    0.2795 H   0  0  0  0  0  0  0  0  0  0  0  0
  1  2  1  0  0  0  0
  2  3  1  0  0  0  0
  3  4  4  0  0  0  0
  4  5  4  0  0  0  0
  5  6  4  0  0  0  0
  6  7  4  0  0  0  0
  3  8  4  0  0  0  0
  7  8  4  0  0  0  0
  7  9  1  0  0  0  0
  1 10  1  0  0  0  0
  1 11  1  0  0  0  0
  1 12  1  0  0  0  0
  2 13  1  0  0  0  0
  2 14  1  0  0  0  0
  4 15  1  0  0  0  0
  5 16  1  0  0  0  0
  6 17  1  0  0  0  0
  8 18  1  0  0  0  0
  9 19  1  0  0  0  0
M  END
