 xtb: 6.7.1 (edcfbbe)
          04062518003D

 24 24  0     0  0            999 V2000
   -1.9928   -0.5786   -0.7501 C   0  0  0  0  0  0  0  0  0  0  0  0
   -1.1877   -0.1094    0.4733 C   0  0  0  0  0  0  0  0  0  0  0  0
   -1.8712   -0.0722    1.3293 H   0  0  0  0  0  0  0  0  0  0  0  0
   -0.6066    1.3037    0.2607 C   0  0  0  0  0  0  0  0  0  0  0  0
   -1.3229    1.8849   -0.3300 H   0  0  0  0  0  0  0  0  0  0  0  0
    0.7395    1.2900   -0.5018 C   0  0  0  0  0  0  0  0  0  0  0  0
    1.1795    2.2887   -0.3815 H   0  0  0  0  0  0  0  0  0  0  0  0
    1.6919    0.2615    0.1261 C   0  0  0  0  0  0  0  0  0  0  0  0
    2.5731    0.1624   -0.5237 H   0  0  0  0  0  0  0  0  0  0  0  0
    0.9943   -1.1121    0.1968 C   0  0  0  0  0  0  0  0  0  0  0  0
    1.6050   -1.7999    0.8047 H   0  0  0  0  0  0  0  0  0  0  0  0
   -0.2146   -1.0610    0.8972 O   0  0  0  0  0  0  0  0  0  0  0  0
    0.8659   -1.5950   -1.1091 O   0  0  0  0  0  0  0  0  0  0  0  0
    2.0440    0.7190    1.4061 O   0  0  0  0  0  0  0  0  0  0  0  0
    0.5846    1.0830   -1.8817 O   0  0  0  0  0  0  0  0  0  0  0  0
   -0.4777    1.9893    1.4816 O   0  0  0  0  0  0  0  0  0  0  0  0
   -2.4642   -1.8864   -0.5077 O   0  0  0  0  0  0  0  0  0  0  0  0
   -1.3729   -0.5541   -1.6528 H   0  0  0  0  0  0  0  0  0  0  0  0
   -2.8255    0.1232   -0.8757 H   0  0  0  0  0  0  0  0  0  0  0  0
    0.4317   -2.4622   -1.0934 H   0  0  0  0  0  0  0  0  0  0  0  0
    2.7214    0.1479    1.7965 H   0  0  0  0  0  0  0  0  0  0  0  0
    0.6389    0.1290   -2.0636 H   0  0  0  0  0  0  0  0  0  0  0  0
    0.2858    1.6267    1.9622 H   0  0  0  0  0  0  0  0  0  0  0  0
   -3.1008   -2.1263   -1.1952 H   0  0  0  0  0  0  0  0  0  0  0  0
  1  2  1  0  0  0  0
  2  3  1  0  0  0  0
  2  4  1  0  0  0  0
  4  5  1  0  0  0  0
  4  6  1  0  0  0  0
  6  7  1  0  0  0  0
  6  8  1  0  0  0  0
  8  9  1  0  0  0  0
  8 10  1  0  0  0  0
 10 11  1  0  0  0  0
  2 12  1  0  0  0  0
 10 12  1  0  0  0  0
 10 13  1  0  0  0  0
  8 14  1  0  0  0  0
  6 15  1  0  0  0  0
  4 16  1  0  0  0  0
  1 17  1  0  0  0  0
  1 18  1  0  0  0  0
  1 19  1  0  0  0  0
 13 20  1  0  0  0  0
 14 21  1  0  0  0  0
 15 22  1  0  0  0  0
 16 23  1  0  0  0  0
 17 24  1  0  0  0  0
M  END
