 xtb: 6.7.1 (edcfbbe)
          04052503223D

 18 18  0     0  0            999 V2000
   -2.7681   -0.7621    0.0024 C   0  0  0  0  0  0  0  0  0  0  0  0
   -1.7974    0.2611    0.0140 O   0  0  0  0  0  0  0  0  0  0  0  0
   -0.4652   -0.1003   -0.0014 C   0  0  0  0  0  0  0  0  0  0  0  0
    0.0021   -1.4002   -0.0092 C   0  0  0  0  0  0  0  0  0  0  0  0
    1.3685   -1.6541   -0.0083 C   0  0  0  0  0  0  0  0  0  0  0  0
    2.2658   -0.6057    0.0056 C   0  0  0  0  0  0  0  0  0  0  0  0
    1.8056    0.7001    0.0157 C   0  0  0  0  0  0  0  0  0  0  0  0
    0.4437    0.9798    0.0074 C   0  0  0  0  0  0  0  0  0  0  0  0
   -0.0311    2.2717   -0.0613 N   0  0  0  0  0  0  0  0  0  0  0  0
   -3.7272   -0.2485    0.0111 H   0  0  0  0  0  0  0  0  0  0  0  0
   -2.6845   -1.3993    0.8877 H   0  0  0  0  0  0  0  0  0  0  0  0
   -2.6881   -1.3741   -0.9004 H   0  0  0  0  0  0  0  0  0  0  0  0
   -0.6857   -2.2308   -0.0140 H   0  0  0  0  0  0  0  0  0  0  0  0
    1.7174   -2.6752   -0.0156 H   0  0  0  0  0  0  0  0  0  0  0  0
    3.3279   -0.7987    0.0114 H   0  0  0  0  0  0  0  0  0  0  0  0
    2.5052    1.5225    0.0270 H   0  0  0  0  0  0  0  0  0  0  0  0
    0.5904    2.9868    0.2783 H   0  0  0  0  0  0  0  0  0  0  0  0
   -0.9984    2.3775    0.1991 H   0  0  0  0  0  0  0  0  0  0  0  0
  1  2  1  0  0  0  0
  2  3  1  0  0  0  0
  3  4  4  0  0  0  0
  4  5  4  0  0  0  0
  5  6  4  0  0  0  0
  6  7  4  0  0  0  0
  3  8  4  0  0  0  0
  7  8  4  0  0  0  0
  8  9  1  0  0  0  0
  1 10  1  0  0  0  0
  1 11  1  0  0  0  0
  1 12  1  0  0  0  0
  4 13  1  0  0  0  0
  5 14  1  0  0  0  0
  6 15  1  0  0  0  0
  7 16  1  0  0  0  0
  9 17  1  0  0  0  0
  9 18  1  0  0  0  0
M  END
