 xtb: 6.7.1 (edcfbbe)
          04042517583D

 13 12  0     0  0            999 V2000
   -1.5556   -0.1248    0.5450 C   0  0  0  0  0  0  0  0  0  0  0  0
   -0.6720    0.4779   -0.5395 C   0  0  0  0  0  0  0  0  0  0  0  0
    0.6691   -0.2468   -0.6488 C   0  0  0  0  0  0  0  0  0  0  0  0
    1.4319   -0.1082    0.5853 N   0  0  0  0  0  0  0  0  0  0  0  0
   -1.8064   -1.1539    0.2996 H   0  0  0  0  0  0  0  0  0  0  0  0
   -1.0286   -0.1170    1.4944 H   0  0  0  0  0  0  0  0  0  0  0  0
   -2.4770    0.4431    0.6458 H   0  0  0  0  0  0  0  0  0  0  0  0
   -0.4876    1.5313   -0.3159 H   0  0  0  0  0  0  0  0  0  0  0  0
   -1.1783    0.4237   -1.5052 H   0  0  0  0  0  0  0  0  0  0  0  0
    0.4926   -1.3147   -0.8068 H   0  0  0  0  0  0  0  0  0  0  0  0
    1.2106    0.1387   -1.5315 H   0  0  0  0  0  0  0  0  0  0  0  0
    1.6263    0.8734    0.7549 H   0  0  0  0  0  0  0  0  0  0  0  0
    2.3207   -0.5867    0.4964 H   0  0  0  0  0  0  0  0  0  0  0  0
  1  2  1  0  0  0  0
  2  3  1  0  0  0  0
  3  4  1  0  0  0  0
  1  5  1  0  0  0  0
  1  6  1  0  0  0  0
  1  7  1  0  0  0  0
  2  8  1  0  0  0  0
  2  9  1  0  0  0  0
  3 10  1  0  0  0  0
  3 11  1  0  0  0  0
  4 12  1  0  0  0  0
  4 13  1  0  0  0  0
M  END
