 xtb: 6.7.1 (edcfbbe)
          04032521083D

 10  9  0     0  0            999 V2000
   -1.2046   -0.2547    0.0160 C   0  0  0  0  0  0  0  0  0  0  0  0
   -0.0001    0.5474   -0.0862 N   0  0  0  0  0  0  0  0  0  0  0  0
    1.2046   -0.2547    0.0160 C   0  0  0  0  0  0  0  0  0  0  0  0
   -1.2349   -0.9450   -0.8272 H   0  0  0  0  0  0  0  0  0  0  0  0
   -2.0720    0.3995   -0.0366 H   0  0  0  0  0  0  0  0  0  0  0  0
   -1.2582   -0.8444    0.9445 H   0  0  0  0  0  0  0  0  0  0  0  0
   -0.0001    1.2416    0.6553 H   0  0  0  0  0  0  0  0  0  0  0  0
    2.0716    0.3999   -0.0356 H   0  0  0  0  0  0  0  0  0  0  0  0
    1.2357   -0.9441   -0.8280 H   0  0  0  0  0  0  0  0  0  0  0  0
    1.2588   -0.8448    0.9441 H   0  0  0  0  0  0  0  0  0  0  0  0
  1  2  1  0  0  0  0
  2  3  1  0  0  0  0
  1  4  1  0  0  0  0
  1  5  1  0  0  0  0
  1  6  1  0  0  0  0
  2  7  1  0  0  0  0
  3  8  1  0  0  0  0
  3  9  1  0  0  0  0
  3 10  1  0  0  0  0
M  END
