 xtb: 6.7.1 (edcfbbe)
          04062518003D

 24 24  0     0  0            999 V2000
   -2.2936   -1.0501   -0.2629 C   0  0  0  0  0  0  0  0  0  0  0  0
   -0.9191   -0.5746    0.2066 C   0  0  0  0  0  0  0  0  0  0  0  0
   -0.8414   -0.7286    1.2947 H   0  0  0  0  0  0  0  0  0  0  0  0
   -0.7321    0.9328   -0.0799 C   0  0  0  0  0  0  0  0  0  0  0  0
   -1.3263    1.2176   -0.9585 H   0  0  0  0  0  0  0  0  0  0  0  0
    0.7404    1.2501   -0.4012 C   0  0  0  0  0  0  0  0  0  0  0  0
    0.9103    2.2927   -0.1003 H   0  0  0  0  0  0  0  0  0  0  0  0
    1.6394    0.3320    0.4375 C   0  0  0  0  0  0  0  0  0  0  0  0
    2.6986    0.5125    0.2104 H   0  0  0  0  0  0  0  0  0  0  0  0
    1.3650   -1.1501    0.0472 C   0  0  0  0  0  0  0  0  0  0  0  0
    1.5294   -1.7697    0.9455 H   0  0  0  0  0  0  0  0  0  0  0  0
    0.0590   -1.3499   -0.4506 O   0  0  0  0  0  0  0  0  0  0  0  0
    2.2450   -1.5998   -0.9195 O   0  0  0  0  0  0  0  0  0  0  0  0
    1.4703    0.5528    1.8166 O   0  0  0  0  0  0  0  0  0  0  0  0
    0.9582    1.0701   -1.7780 O   0  0  0  0  0  0  0  0  0  0  0  0
   -1.0952    1.7007    1.0437 O   0  0  0  0  0  0  0  0  0  0  0  0
   -3.2575   -0.2312    0.3581 O   0  0  0  0  0  0  0  0  0  0  0  0
   -2.4179   -2.1025    0.0145 H   0  0  0  0  0  0  0  0  0  0  0  0
   -2.3351   -0.9625   -1.3552 H   0  0  0  0  0  0  0  0  0  0  0  0
    1.9450   -1.2576   -1.7788 H   0  0  0  0  0  0  0  0  0  0  0  0
    0.6352    1.0275    1.9709 H   0  0  0  0  0  0  0  0  0  0  0  0
    1.7339    1.5783   -2.0542 H   0  0  0  0  0  0  0  0  0  0  0  0
   -2.0355    1.5453    1.2267 H   0  0  0  0  0  0  0  0  0  0  0  0
   -4.1425   -0.5219    0.0968 H   0  0  0  0  0  0  0  0  0  0  0  0
  1  2  1  0  0  0  0
  2  3  1  0  0  0  0
  2  4  1  0  0  0  0
  4  5  1  0  0  0  0
  4  6  1  0  0  0  0
  6  7  1  0  0  0  0
  6  8  1  0  0  0  0
  8  9  1  0  0  0  0
  8 10  1  0  0  0  0
 10 11  1  0  0  0  0
  2 12  1  0  0  0  0
 10 12  1  0  0  0  0
 10 13  1  0  0  0  0
  8 14  1  0  0  0  0
  6 15  1  0  0  0  0
  4 16  1  0  0  0  0
  1 17  1  0  0  0  0
  1 18  1  0  0  0  0
  1 19  1  0  0  0  0
 13 20  1  0  0  0  0
 14 21  1  0  0  0  0
 15 22  1  0  0  0  0
 16 23  1  0  0  0  0
 17 24  1  0  0  0  0
M  END
