 xtb: 6.7.1 (edcfbbe)
          04062518003D

 24 24  0     0  0            999 V2000
   -1.7835   -1.0492   -0.7065 C   0  0  0  0  0  0  0  0  0  0  0  0
   -1.0439   -0.4978    0.5225 C   0  0  0  0  0  0  0  0  0  0  0  0
   -1.7234   -0.6218    1.3755 H   0  0  0  0  0  0  0  0  0  0  0  0
   -0.7234    1.0000    0.3734 C   0  0  0  0  0  0  0  0  0  0  0  0
   -1.5753    1.4655   -0.1433 H   0  0  0  0  0  0  0  0  0  0  0  0
    0.5600    1.2426   -0.4493 C   0  0  0  0  0  0  0  0  0  0  0  0
    0.8520    2.2900   -0.2949 H   0  0  0  0  0  0  0  0  0  0  0  0
    1.7087    0.3681    0.0862 C   0  0  0  0  0  0  0  0  0  0  0  0
    2.5574    0.4349   -0.6041 H   0  0  0  0  0  0  0  0  0  0  0  0
    1.2652   -1.1083    0.1347 C   0  0  0  0  0  0  0  0  0  0  0  0
    2.0048   -1.6936    0.6956 H   0  0  0  0  0  0  0  0  0  0  0  0
    0.0860   -1.2768    0.8892 O   0  0  0  0  0  0  0  0  0  0  0  0
    1.1850   -1.6670   -1.1384 O   0  0  0  0  0  0  0  0  0  0  0  0
    2.1751    0.8174    1.3276 O   0  0  0  0  0  0  0  0  0  0  0  0
    0.3838    0.9536   -1.8163 O   0  0  0  0  0  0  0  0  0  0  0  0
   -0.5074    1.6182    1.6232 O   0  0  0  0  0  0  0  0  0  0  0  0
   -3.0824   -0.4953   -0.6923 O   0  0  0  0  0  0  0  0  0  0  0  0
   -1.8097   -2.1415   -0.6172 H   0  0  0  0  0  0  0  0  0  0  0  0
   -1.2604   -0.7786   -1.6284 H   0  0  0  0  0  0  0  0  0  0  0  0
    0.8959   -0.9887   -1.7740 H   0  0  0  0  0  0  0  0  0  0  0  0
    1.4127    0.9698    1.9129 H   0  0  0  0  0  0  0  0  0  0  0  0
   -0.0550    1.6930   -2.2605 H   0  0  0  0  0  0  0  0  0  0  0  0
   -1.3132    1.5733    2.1572 H   0  0  0  0  0  0  0  0  0  0  0  0
   -3.5978   -0.8769   -1.4165 H   0  0  0  0  0  0  0  0  0  0  0  0
  1  2  1  0  0  0  0
  2  3  1  0  0  0  0
  2  4  1  0  0  0  0
  4  5  1  0  0  0  0
  4  6  1  0  0  0  0
  6  7  1  0  0  0  0
  6  8  1  0  0  0  0
  8  9  1  0  0  0  0
  8 10  1  0  0  0  0
 10 11  1  0  0  0  0
  2 12  1  0  0  0  0
 10 12  1  0  0  0  0
 10 13  1  0  0  0  0
  8 14  1  0  0  0  0
  6 15  1  0  0  0  0
  4 16  1  0  0  0  0
  1 17  1  0  0  0  0
  1 18  1  0  0  0  0
  1 19  1  0  0  0  0
 13 20  1  0  0  0  0
 14 21  1  0  0  0  0
 15 22  1  0  0  0  0
 16 23  1  0  0  0  0
 17 24  1  0  0  0  0
M  END
