 xtb: 6.7.1 (edcfbbe)
          04062518003D

 24 24  0     0  0            999 V2000
   -1.6440   -1.1321   -0.7763 C   0  0  0  0  0  0  0  0  0  0  0  0
   -1.2840   -0.5605    0.6120 C   0  0  0  0  0  0  0  0  0  0  0  0
   -2.1005   -0.7725    1.3094 H   0  0  0  0  0  0  0  0  0  0  0  0
   -1.0437    0.9567    0.6198 C   0  0  0  0  0  0  0  0  0  0  0  0
   -1.8160    1.4629    0.0345 H   0  0  0  0  0  0  0  0  0  0  0  0
    0.3429    1.3075    0.0263 C   0  0  0  0  0  0  0  0  0  0  0  0
    0.9100    1.8475    0.7939 H   0  0  0  0  0  0  0  0  0  0  0  0
    1.1746    0.0815   -0.4031 C   0  0  0  0  0  0  0  0  0  0  0  0
    0.8272   -0.2539   -1.3896 H   0  0  0  0  0  0  0  0  0  0  0  0
    1.0621   -1.1098    0.5546 C   0  0  0  0  0  0  0  0  0  0  0  0
    1.8310   -0.9986    1.3339 H   0  0  0  0  0  0  0  0  0  0  0  0
   -0.1675   -1.1890    1.2353 O   0  0  0  0  0  0  0  0  0  0  0  0
    1.2845   -2.2678   -0.1924 O   0  0  0  0  0  0  0  0  0  0  0  0
    2.5412    0.4145   -0.4700 O   0  0  0  0  0  0  0  0  0  0  0  0
    0.2460    2.1992   -1.0575 O   0  0  0  0  0  0  0  0  0  0  0  0
   -1.1846    1.4540    1.9293 O   0  0  0  0  0  0  0  0  0  0  0  0
   -1.4966   -0.1524   -1.7874 O   0  0  0  0  0  0  0  0  0  0  0  0
   -2.6815   -1.4796   -0.7486 H   0  0  0  0  0  0  0  0  0  0  0  0
   -0.9886   -1.9879   -0.9764 H   0  0  0  0  0  0  0  0  0  0  0  0
    1.4011   -3.0282    0.3974 H   0  0  0  0  0  0  0  0  0  0  0  0
    2.6398    1.1807   -1.0562 H   0  0  0  0  0  0  0  0  0  0  0  0
   -0.3272    1.7957   -1.7289 H   0  0  0  0  0  0  0  0  0  0  0  0
   -0.6586    0.9084    2.5328 H   0  0  0  0  0  0  0  0  0  0  0  0
   -1.8600   -0.5087   -2.6107 H   0  0  0  0  0  0  0  0  0  0  0  0
  1  2  1  0  0  0  0
  2  3  1  0  0  0  0
  2  4  1  0  0  0  0
  4  5  1  0  0  0  0
  4  6  1  0  0  0  0
  6  7  1  0  0  0  0
  6  8  1  0  0  0  0
  8  9  1  0  0  0  0
  8 10  1  0  0  0  0
 10 11  1  0  0  0  0
  2 12  1  0  0  0  0
 10 12  1  0  0  0  0
 10 13  1  0  0  0  0
  8 14  1  0  0  0  0
  6 15  1  0  0  0  0
  4 16  1  0  0  0  0
  1 17  1  0  0  0  0
  1 18  1  0  0  0  0
  1 19  1  0  0  0  0
 13 20  1  0  0  0  0
 14 21  1  0  0  0  0
 15 22  1  0  0  0  0
 16 23  1  0  0  0  0
 17 24  1  0  0  0  0
M  END
