 xtb: 6.7.1 (edcfbbe)
          04052508533D

 22 23  0     0  0            999 V2000
   -3.5245    0.0001    0.0015 C   0  0  0  0  0  0  0  0  0  0  0  0
   -2.8282    1.1171    0.4325 C   0  0  0  0  0  0  0  0  0  0  0  0
   -1.4454    1.1191    0.4286 C   0  0  0  0  0  0  0  0  0  0  0  0
   -0.7356    0.0002   -0.0015 C   0  0  0  0  0  0  0  0  0  0  0  0
   -1.4462   -1.1187   -0.4302 C   0  0  0  0  0  0  0  0  0  0  0  0
   -2.8289   -1.1168   -0.4312 C   0  0  0  0  0  0  0  0  0  0  0  0
    0.7356   -0.0001   -0.0014 C   0  0  0  0  0  0  0  0  0  0  0  0
    1.4463    1.1187   -0.4302 C   0  0  0  0  0  0  0  0  0  0  0  0
    2.8290    1.1167   -0.4311 C   0  0  0  0  0  0  0  0  0  0  0  0
    3.5245   -0.0002    0.0014 C   0  0  0  0  0  0  0  0  0  0  0  0
    2.8281   -1.1172    0.4325 C   0  0  0  0  0  0  0  0  0  0  0  0
    1.4453   -1.1191    0.4287 C   0  0  0  0  0  0  0  0  0  0  0  0
   -4.6042   -0.0000    0.0027 H   0  0  0  0  0  0  0  0  0  0  0  0
   -3.3650    1.9895    0.7745 H   0  0  0  0  0  0  0  0  0  0  0  0
   -0.9075    1.9871    0.7811 H   0  0  0  0  0  0  0  0  0  0  0  0
   -0.9090   -1.9867   -0.7832 H   0  0  0  0  0  0  0  0  0  0  0  0
   -3.3664   -1.9892   -0.7721 H   0  0  0  0  0  0  0  0  0  0  0  0
    0.9091    1.9868   -0.7832 H   0  0  0  0  0  0  0  0  0  0  0  0
    3.3666    1.9892   -0.7720 H   0  0  0  0  0  0  0  0  0  0  0  0
    4.6042   -0.0002    0.0028 H   0  0  0  0  0  0  0  0  0  0  0  0
    3.3649   -1.9896    0.7747 H   0  0  0  0  0  0  0  0  0  0  0  0
    0.9074   -1.9871    0.7809 H   0  0  0  0  0  0  0  0  0  0  0  0
  1  2  4  0  0  0  0
  2  3  4  0  0  0  0
  3  4  4  0  0  0  0
  4  5  4  0  0  0  0
  1  6  4  0  0  0  0
  5  6  4  0  0  0  0
  4  7  1  0  0  0  0
  7  8  4  0  0  0  0
  8  9  4  0  0  0  0
  9 10  4  0  0  0  0
 10 11  4  0  0  0  0
  7 12  4  0  0  0  0
 11 12  4  0  0  0  0
  1 13  1  0  0  0  0
  2 14  1  0  0  0  0
  3 15  1  0  0  0  0
  5 16  1  0  0  0  0
  6 17  1  0  0  0  0
  8 18  1  0  0  0  0
  9 19  1  0  0  0  0
 10 20  1  0  0  0  0
 11 21  1  0  0  0  0
 12 22  1  0  0  0  0
M  END
