 xtb: 6.7.1 (edcfbbe)
          04042519553D

 16 16  0     0  0            999 V2000
   -2.3023    0.0948    0.0427 C   0  0  0  0  0  0  0  0  0  0  0  0
   -1.6599    1.2994   -0.1966 C   0  0  0  0  0  0  0  0  0  0  0  0
   -0.2796    1.3518   -0.2456 C   0  0  0  0  0  0  0  0  0  0  0  0
    0.4749    0.1991   -0.0561 C   0  0  0  0  0  0  0  0  0  0  0  0
   -0.1728   -1.0032    0.1820 C   0  0  0  0  0  0  0  0  0  0  0  0
   -1.5559   -1.0546    0.2316 C   0  0  0  0  0  0  0  0  0  0  0  0
    1.9793    0.2843   -0.1169 C   0  0  0  0  0  0  0  0  0  0  0  0
    2.5712   -0.9705    0.1408 O   0  0  0  0  0  0  0  0  0  0  0  0
   -3.3805    0.0546    0.0812 H   0  0  0  0  0  0  0  0  0  0  0  0
   -2.2373    2.1997   -0.3451 H   0  0  0  0  0  0  0  0  0  0  0  0
    0.2206    2.2913   -0.4320 H   0  0  0  0  0  0  0  0  0  0  0  0
    0.4169   -1.8947    0.3286 H   0  0  0  0  0  0  0  0  0  0  0  0
   -2.0493   -1.9968    0.4179 H   0  0  0  0  0  0  0  0  0  0  0  0
    2.2686    0.6445   -1.1161 H   0  0  0  0  0  0  0  0  0  0  0  0
    2.3181    1.0263    0.6216 H   0  0  0  0  0  0  0  0  0  0  0  0
    3.5322   -0.8802    0.1032 H   0  0  0  0  0  0  0  0  0  0  0  0
  1  2  4  0  0  0  0
  2  3  4  0  0  0  0
  3  4  4  0  0  0  0
  4  5  4  0  0  0  0
  1  6  4  0  0  0  0
  5  6  4  0  0  0  0
  4  7  1  0  0  0  0
  7  8  1  0  0  0  0
  1  9  1  0  0  0  0
  2 10  1  0  0  0  0
  3 11  1  0  0  0  0
  5 12  1  0  0  0  0
  6 13  1  0  0  0  0
  7 14  1  0  0  0  0
  7 15  1  0  0  0  0
  8 16  1  0  0  0  0
M  END
