 xtb: 6.7.1 (edcfbbe)
          04042518453D

 14 14  0     0  0            999 V2000
    2.0145    0.7728   -0.0004 C   0  0  0  0  0  0  0  0  0  0  0  0
    0.7848   -0.0912   -0.0002 C   0  0  0  0  0  0  0  0  0  0  0  0
    0.8416   -1.3107    0.0012 O   0  0  0  0  0  0  0  0  0  0  0  0
   -0.4955    0.6437   -0.0019 C   0  0  0  0  0  0  0  0  0  0  0  0
   -1.6673    0.0279   -0.7401 C   0  0  0  0  0  0  0  0  0  0  0  0
   -1.6667    0.0325    0.7411 C   0  0  0  0  0  0  0  0  0  0  0  0
    2.0060    1.4118    0.8794 H   0  0  0  0  0  0  0  0  0  0  0  0
    2.9082    0.1553    0.0010 H   0  0  0  0  0  0  0  0  0  0  0  0
    2.0074    1.4098   -0.8816 H   0  0  0  0  0  0  0  0  0  0  0  0
   -0.4099    1.7208   -0.0049 H   0  0  0  0  0  0  0  0  0  0  0  0
   -2.3237    0.6987   -1.2706 H   0  0  0  0  0  0  0  0  0  0  0  0
   -1.4746   -0.9090   -1.2408 H   0  0  0  0  0  0  0  0  0  0  0  0
   -2.3226    0.7067    1.2679 H   0  0  0  0  0  0  0  0  0  0  0  0
   -1.4738   -0.9013    1.2476 H   0  0  0  0  0  0  0  0  0  0  0  0
  1  2  1  0  0  0  0
  2  3  2  0  0  0  0
  2  4  1  0  0  0  0
  4  5  1  0  0  0  0
  4  6  1  0  0  0  0
  5  6  1  0  0  0  0
  1  7  1  0  0  0  0
  1  8  1  0  0  0  0
  1  9  1  0  0  0  0
  4 10  1  0  0  0  0
  5 11  1  0  0  0  0
  5 12  1  0  0  0  0
  6 13  1  0  0  0  0
  6 14  1  0  0  0  0
M  END
