 xtb: 6.7.1 (edcfbbe)
          04062511443D

 31 31  0     0  0            999 V2000
    3.7241    0.1811    0.0642 C   0  0  0  0  0  0  0  0  0  0  0  0
    2.2503    0.3302   -0.3035 C   0  0  0  0  0  0  0  0  0  0  0  0
    2.1758    0.5483   -1.3753 H   0  0  0  0  0  0  0  0  0  0  0  0
    1.6003    1.4752    0.4703 C   0  0  0  0  0  0  0  0  0  0  0  0
    0.1223    1.5990    0.1162 C   0  0  0  0  0  0  0  0  0  0  0  0
   -0.6431    0.3039    0.4076 C   0  0  0  0  0  0  0  0  0  0  0  0
   -0.5178    0.0607    1.4687 H   0  0  0  0  0  0  0  0  0  0  0  0
    0.0041   -0.8365   -0.3933 C   0  0  0  0  0  0  0  0  0  0  0  0
   -0.0668   -0.6028   -1.4679 H   0  0  0  0  0  0  0  0  0  0  0  0
    1.4855   -0.9610   -0.0200 C   0  0  0  0  0  0  0  0  0  0  0  0
   -0.6813   -2.0505   -0.1344 O   0  0  0  0  0  0  0  0  0  0  0  0
   -2.1567    0.4939    0.1603 C   0  0  0  0  0  0  0  0  0  0  0  0
   -2.5544    0.3597   -1.3081 C   0  0  0  0  0  0  0  0  0  0  0  0
   -2.9848   -0.4672    1.0128 C   0  0  0  0  0  0  0  0  0  0  0  0
    4.1819   -0.6245   -0.5047 H   0  0  0  0  0  0  0  0  0  0  0  0
    4.2630    1.1014   -0.1473 H   0  0  0  0  0  0  0  0  0  0  0  0
    3.8292   -0.0428    1.1234 H   0  0  0  0  0  0  0  0  0  0  0  0
    1.7025    1.2880    1.5415 H   0  0  0  0  0  0  0  0  0  0  0  0
    2.1117    2.4127    0.2435 H   0  0  0  0  0  0  0  0  0  0  0  0
   -0.3214    2.4133    0.6921 H   0  0  0  0  0  0  0  0  0  0  0  0
    0.0237    1.8473   -0.9428 H   0  0  0  0  0  0  0  0  0  0  0  0
    1.5584   -1.2075    1.0420 H   0  0  0  0  0  0  0  0  0  0  0  0
    1.9305   -1.7829   -0.5876 H   0  0  0  0  0  0  0  0  0  0  0  0
   -0.2007   -2.7763   -0.5542 H   0  0  0  0  0  0  0  0  0  0  0  0
   -2.3995    1.5148    0.4810 H   0  0  0  0  0  0  0  0  0  0  0  0
   -3.5953    0.6487   -1.4345 H   0  0  0  0  0  0  0  0  0  0  0  0
   -2.4467   -0.6709   -1.6353 H   0  0  0  0  0  0  0  0  0  0  0  0
   -1.9451    1.0002   -1.9412 H   0  0  0  0  0  0  0  0  0  0  0  0
   -4.0459   -0.3146    0.8288 H   0  0  0  0  0  0  0  0  0  0  0  0
   -2.7922   -0.3029    2.0707 H   0  0  0  0  0  0  0  0  0  0  0  0
   -2.7302   -1.4948    0.7713 H   0  0  0  0  0  0  0  0  0  0  0  0
  1  2  1  0  0  0  0
  2  3  1  0  0  0  0
  2  4  1  0  0  0  0
  4  5  1  0  0  0  0
  5  6  1  0  0  0  0
  6  7  1  0  0  0  0
  6  8  1  0  0  0  0
  8  9  1  0  0  0  0
  2 10  1  0  0  0  0
  8 10  1  0  0  0  0
  8 11  1  0  0  0  0
  6 12  1  0  0  0  0
 12 13  1  0  0  0  0
 12 14  1  0  0  0  0
  1 15  1  0  0  0  0
  1 16  1  0  0  0  0
  1 17  1  0  0  0  0
  4 18  1  0  0  0  0
  4 19  1  0  0  0  0
  5 20  1  0  0  0  0
  5 21  1  0  0  0  0
 10 22  1  0  0  0  0
 10 23  1  0  0  0  0
 11 24  1  0  0  0  0
 12 25  1  0  0  0  0
 13 26  1  0  0  0  0
 13 27  1  0  0  0  0
 13 28  1  0  0  0  0
 14 29  1  0  0  0  0
 14 30  1  0  0  0  0
 14 31  1  0  0  0  0
M  END
