 xtb: 6.7.1 (edcfbbe)
          04062518003D

 24 24  0     0  0            999 V2000
   -2.4276   -1.0943   -0.3268 C   0  0  0  0  0  0  0  0  0  0  0  0
   -1.0777   -0.5975    0.2102 C   0  0  0  0  0  0  0  0  0  0  0  0
   -1.1260   -0.5704    1.3099 H   0  0  0  0  0  0  0  0  0  0  0  0
   -0.7421    0.8114   -0.3022 C   0  0  0  0  0  0  0  0  0  0  0  0
   -0.7293    0.7842   -1.4058 H   0  0  0  0  0  0  0  0  0  0  0  0
    0.6534    1.2334    0.1955 C   0  0  0  0  0  0  0  0  0  0  0  0
    0.6387    1.3085    1.2893 H   0  0  0  0  0  0  0  0  0  0  0  0
    1.6763    0.1719   -0.2134 C   0  0  0  0  0  0  0  0  0  0  0  0
    1.7394    0.1359   -1.3149 H   0  0  0  0  0  0  0  0  0  0  0  0
    1.1960   -1.2109    0.2881 C   0  0  0  0  0  0  0  0  0  0  0  0
    1.1930   -1.1972    1.3921 H   0  0  0  0  0  0  0  0  0  0  0  0
   -0.0835   -1.5111   -0.2099 O   0  0  0  0  0  0  0  0  0  0  0  0
    2.0666   -2.2119   -0.1038 O   0  0  0  0  0  0  0  0  0  0  0  0
    2.9280    0.4878    0.3355 O   0  0  0  0  0  0  0  0  0  0  0  0
    0.9604    2.5268   -0.2596 O   0  0  0  0  0  0  0  0  0  0  0  0
   -1.7265    1.7099    0.1398 O   0  0  0  0  0  0  0  0  0  0  0  0
   -3.5143   -0.4928    0.3208 O   0  0  0  0  0  0  0  0  0  0  0  0
   -2.5025   -2.1673   -0.1384 H   0  0  0  0  0  0  0  0  0  0  0  0
   -2.4692   -0.9237   -1.4108 H   0  0  0  0  0  0  0  0  0  0  0  0
    1.7868   -2.5556   -0.9671 H   0  0  0  0  0  0  0  0  0  0  0  0
    3.5075   -0.2869    0.2627 H   0  0  0  0  0  0  0  0  0  0  0  0
    1.3113    2.4924   -1.1612 H   0  0  0  0  0  0  0  0  0  0  0  0
   -1.3643    2.6097    0.0900 H   0  0  0  0  0  0  0  0  0  0  0  0
   -3.3968    0.4712    0.2877 H   0  0  0  0  0  0  0  0  0  0  0  0
  1  2  1  0  0  0  0
  2  3  1  0  0  0  0
  2  4  1  0  0  0  0
  4  5  1  0  0  0  0
  4  6  1  0  0  0  0
  6  7  1  0  0  0  0
  6  8  1  0  0  0  0
  8  9  1  0  0  0  0
  8 10  1  0  0  0  0
 10 11  1  0  0  0  0
  2 12  1  0  0  0  0
 10 12  1  0  0  0  0
 10 13  1  0  0  0  0
  8 14  1  0  0  0  0
  6 15  1  0  0  0  0
  4 16  1  0  0  0  0
  1 17  1  0  0  0  0
  1 18  1  0  0  0  0
  1 19  1  0  0  0  0
 13 20  1  0  0  0  0
 14 21  1  0  0  0  0
 15 22  1  0  0  0  0
 16 23  1  0  0  0  0
 17 24  1  0  0  0  0
M  END
