 xtb: 6.7.1 (edcfbbe)
          04062518003D

 24 24  0     0  0            999 V2000
   -2.3721   -1.1422   -0.4207 C   0  0  0  0  0  0  0  0  0  0  0  0
   -1.0805   -0.6286    0.2240 C   0  0  0  0  0  0  0  0  0  0  0  0
   -1.1778   -0.6686    1.3212 H   0  0  0  0  0  0  0  0  0  0  0  0
   -0.8020    0.8393   -0.1632 C   0  0  0  0  0  0  0  0  0  0  0  0
   -0.9243    0.9646   -1.2505 H   0  0  0  0  0  0  0  0  0  0  0  0
    0.6350    1.2495    0.1897 C   0  0  0  0  0  0  0  0  0  0  0  0
    0.6812    1.3916    1.2824 H   0  0  0  0  0  0  0  0  0  0  0  0
    1.6518    0.1734   -0.2300 C   0  0  0  0  0  0  0  0  0  0  0  0
    1.6736    0.1238   -1.3248 H   0  0  0  0  0  0  0  0  0  0  0  0
    1.2110   -1.1937    0.3235 C   0  0  0  0  0  0  0  0  0  0  0  0
    1.1606   -1.1464    1.4254 H   0  0  0  0  0  0  0  0  0  0  0  0
   -0.0612   -1.5079   -0.2035 O   0  0  0  0  0  0  0  0  0  0  0  0
    2.0812   -2.2174    0.0256 O   0  0  0  0  0  0  0  0  0  0  0  0
    2.9532    0.5284    0.1600 O   0  0  0  0  0  0  0  0  0  0  0  0
    0.9144    2.4641   -0.4611 O   0  0  0  0  0  0  0  0  0  0  0  0
   -1.6636    1.7025    0.5327 O   0  0  0  0  0  0  0  0  0  0  0  0
   -3.4558   -0.3615    0.0238 O   0  0  0  0  0  0  0  0  0  0  0  0
   -2.4919   -2.1939   -0.1374 H   0  0  0  0  0  0  0  0  0  0  0  0
   -2.2585   -1.0804   -1.5100 H   0  0  0  0  0  0  0  0  0  0  0  0
    2.0824   -2.3851   -0.9300 H   0  0  0  0  0  0  0  0  0  0  0  0
    3.0733    0.3761    1.1086 H   0  0  0  0  0  0  0  0  0  0  0  0
    1.8609    2.6537   -0.3599 H   0  0  0  0  0  0  0  0  0  0  0  0
   -2.5762    1.3854    0.4116 H   0  0  0  0  0  0  0  0  0  0  0  0
   -4.2775   -0.7076   -0.3527 H   0  0  0  0  0  0  0  0  0  0  0  0
  1  2  1  0  0  0  0
  2  3  1  0  0  0  0
  2  4  1  0  0  0  0
  4  5  1  0  0  0  0
  4  6  1  0  0  0  0
  6  7  1  0  0  0  0
  6  8  1  0  0  0  0
  8  9  1  0  0  0  0
  8 10  1  0  0  0  0
 10 11  1  0  0  0  0
  2 12  1  0  0  0  0
 10 12  1  0  0  0  0
 10 13  1  0  0  0  0
  8 14  1  0  0  0  0
  6 15  1  0  0  0  0
  4 16  1  0  0  0  0
  1 17  1  0  0  0  0
  1 18  1  0  0  0  0
  1 19  1  0  0  0  0
 13 20  1  0  0  0  0
 14 21  1  0  0  0  0
 15 22  1  0  0  0  0
 16 23  1  0  0  0  0
 17 24  1  0  0  0  0
M  END
