 xtb: 6.7.1 (edcfbbe)
          04032521413D

 15 14  0     0  0            999 V2000
   -2.0712    0.0651   -0.0013 C   0  0  0  0  0  0  0  0  0  0  0  0
   -0.7088    0.6934    0.0015 C   0  0  0  0  0  0  0  0  0  0  0  0
    0.4468    0.0399    0.0040 C   0  0  0  0  0  0  0  0  0  0  0  0
    1.7633    0.7600   -0.0018 C   0  0  0  0  0  0  0  0  0  0  0  0
    0.5574   -1.4562   -0.0002 C   0  0  0  0  0  0  0  0  0  0  0  0
   -2.2336   -0.5165    0.9062 H   0  0  0  0  0  0  0  0  0  0  0  0
   -2.8404    0.8302   -0.0558 H   0  0  0  0  0  0  0  0  0  0  0  0
   -2.1912   -0.6027   -0.8533 H   0  0  0  0  0  0  0  0  0  0  0  0
   -0.6930    1.7755    0.0024 H   0  0  0  0  0  0  0  0  0  0  0  0
    2.3289    0.5188    0.8978 H   0  0  0  0  0  0  0  0  0  0  0  0
    2.3579    0.4479   -0.8596 H   0  0  0  0  0  0  0  0  0  0  0  0
    1.6234    1.8369   -0.0463 H   0  0  0  0  0  0  0  0  0  0  0  0
   -0.4007   -1.9316    0.1810 H   0  0  0  0  0  0  0  0  0  0  0  0
    0.9371   -1.7970   -0.9634 H   0  0  0  0  0  0  0  0  0  0  0  0
    1.2607   -1.7802    0.7652 H   0  0  0  0  0  0  0  0  0  0  0  0
  1  2  1  0  0  0  0
  2  3  2  0  0  0  0
  3  4  1  0  0  0  0
  3  5  1  0  0  0  0
  1  6  1  0  0  0  0
  1  7  1  0  0  0  0
  1  8  1  0  0  0  0
  2  9  1  0  0  0  0
  4 10  1  0  0  0  0
  4 11  1  0  0  0  0
  4 12  1  0  0  0  0
  5 13  1  0  0  0  0
  5 14  1  0  0  0  0
  5 15  1  0  0  0  0
M  END
