 xtb: 6.7.1 (edcfbbe)
          04032522113D

 11 10  0     0  0            999 V2000
   -2.4846    0.2168    0.3929 C   0  0  0  0  0  0  0  0  0  0  0  0
   -1.7731    0.0402   -0.9423 C   0  0  0  0  0  0  0  0  0  0  0  0
   -0.5180   -0.8021   -0.8263 C   0  0  0  0  0  0  0  0  0  0  0  0
    0.8782    0.0995    0.2439 Br  0  0  0  0  0  0  0  0  0  0  0  0
   -2.7662   -0.7486    0.8076 H   0  0  0  0  0  0  0  0  0  0  0  0
   -1.8373    0.7232    1.1062 H   0  0  0  0  0  0  0  0  0  0  0  0
   -3.3830    0.8134    0.2640 H   0  0  0  0  0  0  0  0  0  0  0  0
   -1.5214    1.0173   -1.3597 H   0  0  0  0  0  0  0  0  0  0  0  0
   -2.4356   -0.4670   -1.6477 H   0  0  0  0  0  0  0  0  0  0  0  0
   -0.0582   -0.9849   -1.7955 H   0  0  0  0  0  0  0  0  0  0  0  0
   -0.7072   -1.7444   -0.3153 H   0  0  0  0  0  0  0  0  0  0  0  0
  1  2  1  0  0  0  0
  2  3  1  0  0  0  0
  3  4  1  0  0  0  0
  1  5  1  0  0  0  0
  1  6  1  0  0  0  0
  1  7  1  0  0  0  0
  2  8  1  0  0  0  0
  2  9  1  0  0  0  0
  3 10  1  0  0  0  0
  3 11  1  0  0  0  0
M  END
