 xtb: 6.7.1 (edcfbbe)
          04042523583D

 17 17  0     0  0            999 V2000
   -2.4722   -1.1798   -0.0015 C   0  0  0  0  0  0  0  0  0  0  0  0
   -1.6877    0.1016    0.0000 C   0  0  0  0  0  0  0  0  0  0  0  0
   -2.2500    1.1878    0.0019 O   0  0  0  0  0  0  0  0  0  0  0  0
   -0.2105    0.0057   -0.0003 C   0  0  0  0  0  0  0  0  0  0  0  0
    0.4733   -1.2112    0.0006 C   0  0  0  0  0  0  0  0  0  0  0  0
    1.8556   -1.2298    0.0009 C   0  0  0  0  0  0  0  0  0  0  0  0
    2.5739   -0.0439    0.0002 C   0  0  0  0  0  0  0  0  0  0  0  0
    1.9051    1.1704   -0.0008 C   0  0  0  0  0  0  0  0  0  0  0  0
    0.5246    1.1937   -0.0011 C   0  0  0  0  0  0  0  0  0  0  0  0
   -2.2261   -1.7637   -0.8846 H   0  0  0  0  0  0  0  0  0  0  0  0
   -3.5342   -0.9487   -0.0031 H   0  0  0  0  0  0  0  0  0  0  0  0
   -2.2290   -1.7634    0.8826 H   0  0  0  0  0  0  0  0  0  0  0  0
   -0.0662   -2.1439    0.0012 H   0  0  0  0  0  0  0  0  0  0  0  0
    2.3776   -2.1743    0.0017 H   0  0  0  0  0  0  0  0  0  0  0  0
    3.6528   -0.0659    0.0006 H   0  0  0  0  0  0  0  0  0  0  0  0
    2.4594    2.0963   -0.0014 H   0  0  0  0  0  0  0  0  0  0  0  0
   -0.0175    2.1282   -0.0019 H   0  0  0  0  0  0  0  0  0  0  0  0
  1  2  1  0  0  0  0
  2  3  2  0  0  0  0
  2  4  1  0  0  0  0
  4  5  4  0  0  0  0
  5  6  4  0  0  0  0
  6  7  4  0  0  0  0
  7  8  4  0  0  0  0
  4  9  4  0  0  0  0
  8  9  4  0  0  0  0
  1 10  1  0  0  0  0
  1 11  1  0  0  0  0
  1 12  1  0  0  0  0
  5 13  1  0  0  0  0
  6 14  1  0  0  0  0
  7 15  1  0  0  0  0
  8 16  1  0  0  0  0
  9 17  1  0  0  0  0
M  END
