 xtb: 6.7.1 (edcfbbe)
          04062518003D

 24 24  0     0  0            999 V2000
   -2.1426   -1.0210   -0.4911 C   0  0  0  0  0  0  0  0  0  0  0  0
   -1.2170   -0.1745    0.4040 C   0  0  0  0  0  0  0  0  0  0  0  0
   -1.7834    0.2063    1.2630 H   0  0  0  0  0  0  0  0  0  0  0  0
   -0.6508    1.0393   -0.3671 C   0  0  0  0  0  0  0  0  0  0  0  0
   -0.5606    0.7885   -1.4356 H   0  0  0  0  0  0  0  0  0  0  0  0
    0.7539    1.3424    0.1698 C   0  0  0  0  0  0  0  0  0  0  0  0
    0.7024    1.4798    1.2554 H   0  0  0  0  0  0  0  0  0  0  0  0
    1.6598    0.1406   -0.1438 C   0  0  0  0  0  0  0  0  0  0  0  0
    1.8307    0.0932   -1.2319 H   0  0  0  0  0  0  0  0  0  0  0  0
    0.9721   -1.1752    0.2690 C   0  0  0  0  0  0  0  0  0  0  0  0
    1.6389   -1.6956    0.9715 H   0  0  0  0  0  0  0  0  0  0  0  0
   -0.1994   -0.9676    1.0108 O   0  0  0  0  0  0  0  0  0  0  0  0
    0.7524   -1.9264   -0.8836 O   0  0  0  0  0  0  0  0  0  0  0  0
    2.8860    0.2317    0.5329 O   0  0  0  0  0  0  0  0  0  0  0  0
    1.3068    2.5281   -0.3340 O   0  0  0  0  0  0  0  0  0  0  0  0
   -1.4483    2.1831   -0.1927 O   0  0  0  0  0  0  0  0  0  0  0  0
   -2.6239   -2.1739    0.1490 O   0  0  0  0  0  0  0  0  0  0  0  0
   -1.5886   -1.3757   -1.3628 H   0  0  0  0  0  0  0  0  0  0  0  0
   -2.9757   -0.3898   -0.8290 H   0  0  0  0  0  0  0  0  0  0  0  0
    0.4444   -2.8143   -0.6436 H   0  0  0  0  0  0  0  0  0  0  0  0
    3.2269    1.1348    0.4287 H   0  0  0  0  0  0  0  0  0  0  0  0
    1.1621    2.5833   -1.2899 H   0  0  0  0  0  0  0  0  0  0  0  0
   -2.2763    2.0962   -0.6849 H   0  0  0  0  0  0  0  0  0  0  0  0
   -3.0699   -1.9282    0.9718 H   0  0  0  0  0  0  0  0  0  0  0  0
  1  2  1  0  0  0  0
  2  3  1  0  0  0  0
  2  4  1  0  0  0  0
  4  5  1  0  0  0  0
  4  6  1  0  0  0  0
  6  7  1  0  0  0  0
  6  8  1  0  0  0  0
  8  9  1  0  0  0  0
  8 10  1  0  0  0  0
 10 11  1  0  0  0  0
  2 12  1  0  0  0  0
 10 12  1  0  0  0  0
 10 13  1  0  0  0  0
  8 14  1  0  0  0  0
  6 15  1  0  0  0  0
  4 16  1  0  0  0  0
  1 17  1  0  0  0  0
  1 18  1  0  0  0  0
  1 19  1  0  0  0  0
 13 20  1  0  0  0  0
 14 21  1  0  0  0  0
 15 22  1  0  0  0  0
 16 23  1  0  0  0  0
 17 24  1  0  0  0  0
M  END
