 xtb: 6.7.1 (edcfbbe)
          04062518003D

 24 24  0     0  0            999 V2000
   -2.3832   -1.1711   -0.3313 C   0  0  0  0  0  0  0  0  0  0  0  0
   -1.0751   -0.6244    0.2500 C   0  0  0  0  0  0  0  0  0  0  0  0
   -1.1429   -0.6007    1.3503 H   0  0  0  0  0  0  0  0  0  0  0  0
   -0.7774    0.7994   -0.2437 C   0  0  0  0  0  0  0  0  0  0  0  0
   -0.8089    0.8083   -1.3455 H   0  0  0  0  0  0  0  0  0  0  0  0
    0.6288    1.2327    0.2006 C   0  0  0  0  0  0  0  0  0  0  0  0
    0.6184    1.3258    1.3012 H   0  0  0  0  0  0  0  0  0  0  0  0
    1.6785    0.1873   -0.1972 C   0  0  0  0  0  0  0  0  0  0  0  0
    1.7607    0.1461   -1.2874 H   0  0  0  0  0  0  0  0  0  0  0  0
    1.2272   -1.1993    0.3078 C   0  0  0  0  0  0  0  0  0  0  0  0
    1.2135   -1.1853    1.4211 H   0  0  0  0  0  0  0  0  0  0  0  0
   -0.0648   -1.5240   -0.1567 O   0  0  0  0  0  0  0  0  0  0  0  0
    2.0992   -2.1532   -0.1669 O   0  0  0  0  0  0  0  0  0  0  0  0
    2.9598    0.5103    0.2587 O   0  0  0  0  0  0  0  0  0  0  0  0
    0.9797    2.4639   -0.3755 O   0  0  0  0  0  0  0  0  0  0  0  0
   -1.6737    1.7459    0.2839 O   0  0  0  0  0  0  0  0  0  0  0  0
   -3.4534   -0.3652    0.1032 O   0  0  0  0  0  0  0  0  0  0  0  0
   -2.4965   -2.2058    0.0101 H   0  0  0  0  0  0  0  0  0  0  0  0
   -2.2995   -1.1674   -1.4247 H   0  0  0  0  0  0  0  0  0  0  0  0
    1.7216   -3.0374   -0.0315 H   0  0  0  0  0  0  0  0  0  0  0  0
    2.9488    0.6550    1.2167 H   0  0  0  0  0  0  0  0  0  0  0  0
    0.2597    3.0912   -0.2055 H   0  0  0  0  0  0  0  0  0  0  0  0
   -2.5751    1.3814    0.2359 H   0  0  0  0  0  0  0  0  0  0  0  0
   -4.2866   -0.7290   -0.2290 H   0  0  0  0  0  0  0  0  0  0  0  0
  1  2  1  0  0  0  0
  2  3  1  0  0  0  0
  2  4  1  0  0  0  0
  4  5  1  0  0  0  0
  4  6  1  0  0  0  0
  6  7  1  0  0  0  0
  6  8  1  0  0  0  0
  8  9  1  0  0  0  0
  8 10  1  0  0  0  0
 10 11  1  0  0  0  0
  2 12  1  0  0  0  0
 10 12  1  0  0  0  0
 10 13  1  0  0  0  0
  8 14  1  0  0  0  0
  6 15  1  0  0  0  0
  4 16  1  0  0  0  0
  1 17  1  0  0  0  0
  1 18  1  0  0  0  0
  1 19  1  0  0  0  0
 13 20  1  0  0  0  0
 14 21  1  0  0  0  0
 15 22  1  0  0  0  0
 16 23  1  0  0  0  0
 17 24  1  0  0  0  0
M  END
