 xtb: 6.7.1 (edcfbbe)
          04042523483D

 16 15  0     0  0            999 V2000
    1.3328    0.9384    0.9399 C   0  0  0  0  0  0  0  0  0  0  0  0
    0.7027    0.3392   -0.3205 C   0  0  0  0  0  0  0  0  0  0  0  0
    1.4620   -0.9140   -0.7623 C   0  0  0  0  0  0  0  0  0  0  0  0
   -0.7690    0.0417   -0.0999 C   0  0  0  0  0  0  0  0  0  0  0  0
   -1.6229    0.6134   -0.7533 O   0  0  0  0  0  0  0  0  0  0  0  0
   -1.1203   -0.9727    0.9447 C   0  0  0  0  0  0  0  0  0  0  0  0
    2.3313    1.2991    0.7079 H   0  0  0  0  0  0  0  0  0  0  0  0
    0.7409    1.7755    1.3031 H   0  0  0  0  0  0  0  0  0  0  0  0
    1.4124    0.1925    1.7254 H   0  0  0  0  0  0  0  0  0  0  0  0
    0.7469    1.0825   -1.1247 H   0  0  0  0  0  0  0  0  0  0  0  0
    1.5226   -1.6362    0.0467 H   0  0  0  0  0  0  0  0  0  0  0  0
    2.4727   -0.6397   -1.0529 H   0  0  0  0  0  0  0  0  0  0  0  0
    0.9728   -1.3770   -1.6164 H   0  0  0  0  0  0  0  0  0  0  0  0
   -2.2003   -1.0662    1.0171 H   0  0  0  0  0  0  0  0  0  0  0  0
   -0.7128   -0.6708    1.9053 H   0  0  0  0  0  0  0  0  0  0  0  0
   -0.6891   -1.9343    0.6801 H   0  0  0  0  0  0  0  0  0  0  0  0
  1  2  1  0  0  0  0
  2  3  1  0  0  0  0
  2  4  1  0  0  0  0
  4  5  2  0  0  0  0
  4  6  1  0  0  0  0
  1  7  1  0  0  0  0
  1  8  1  0  0  0  0
  1  9  1  0  0  0  0
  2 10  1  0  0  0  0
  3 11  1  0  0  0  0
  3 12  1  0  0  0  0
  3 13  1  0  0  0  0
  6 14  1  0  0  0  0
  6 15  1  0  0  0  0
  6 16  1  0  0  0  0
M  END
