 xtb: 6.7.1 (edcfbbe)
          04042520063D

 15 15  0     0  0            999 V2000
   -0.4214   -1.0415    0.0000 C   0  0  0  0  0  0  0  0  0  0  0  0
    0.9438   -1.2073    0.0000 C   0  0  0  0  0  0  0  0  0  0  0  0
    1.7827   -0.0896   -0.0001 C   0  0  0  0  0  0  0  0  0  0  0  0
    1.2250    1.1942   -0.0000 C   0  0  0  0  0  0  0  0  0  0  0  0
   -0.1395    1.3549    0.0000 C   0  0  0  0  0  0  0  0  0  0  0  0
   -0.9861    0.2395   -0.0000 C   0  0  0  0  0  0  0  0  0  0  0  0
   -2.4249    0.4065   -0.0000 C   0  0  0  0  0  0  0  0  0  0  0  0
   -3.2480   -0.4921    0.0000 O   0  0  0  0  0  0  0  0  0  0  0  0
    3.1213   -0.1911    0.0000 O   0  0  0  0  0  0  0  0  0  0  0  0
   -1.0856   -1.8927    0.0001 H   0  0  0  0  0  0  0  0  0  0  0  0
    1.3673   -2.2003    0.0000 H   0  0  0  0  0  0  0  0  0  0  0  0
    1.8917    2.0413    0.0004 H   0  0  0  0  0  0  0  0  0  0  0  0
   -0.5676    2.3456    0.0004 H   0  0  0  0  0  0  0  0  0  0  0  0
   -2.7640    1.4597   -0.0000 H   0  0  0  0  0  0  0  0  0  0  0  0
    3.4117   -1.1178   -0.0001 H   0  0  0  0  0  0  0  0  0  0  0  0
  1  2  4  0  0  0  0
  2  3  4  0  0  0  0
  3  4  4  0  0  0  0
  4  5  2  0  0  0  0
  1  6  4  0  0  0  0
  5  6  4  0  0  0  0
  6  7  1  0  0  0  0
  7  8  2  0  0  0  0
  3  9  1  0  0  0  0
  1 10  1  0  0  0  0
  2 11  1  0  0  0  0
  4 12  1  0  0  0  0
  5 13  1  0  0  0  0
  7 14  1  0  0  0  0
  9 15  1  0  0  0  0
M  END
