 xtb: 6.7.1 (edcfbbe)
          04052508533D

 21 21  0     0  0            999 V2000
   -2.6396   -1.3242    0.3956 C   0  0  0  0  0  0  0  0  0  0  0  0
   -1.9501   -0.1672   -0.3267 C   0  0  0  0  0  0  0  0  0  0  0  0
   -0.4503   -0.1515   -0.1657 C   0  0  0  0  0  0  0  0  0  0  0  0
    0.2689   -1.3390   -0.2303 C   0  0  0  0  0  0  0  0  0  0  0  0
    1.6450   -1.3609   -0.0935 C   0  0  0  0  0  0  0  0  0  0  0  0
    2.3308   -0.1776    0.1093 C   0  0  0  0  0  0  0  0  0  0  0  0
    1.6285    1.0124    0.1615 C   0  0  0  0  0  0  0  0  0  0  0  0
    0.2464    1.0476    0.0228 C   0  0  0  0  0  0  0  0  0  0  0  0
   -0.4572    2.3728    0.0730 C   0  0  0  0  0  0  0  0  0  0  0  0
   -2.4112   -2.2810   -0.0654 H   0  0  0  0  0  0  0  0  0  0  0  0
   -3.7180   -1.1867    0.3634 H   0  0  0  0  0  0  0  0  0  0  0  0
   -2.3264   -1.3594    1.4367 H   0  0  0  0  0  0  0  0  0  0  0  0
   -2.3658    0.7655    0.0518 H   0  0  0  0  0  0  0  0  0  0  0  0
   -2.1856   -0.2204   -1.3943 H   0  0  0  0  0  0  0  0  0  0  0  0
   -0.2525   -2.2693   -0.3950 H   0  0  0  0  0  0  0  0  0  0  0  0
    2.1779   -2.2989   -0.1465 H   0  0  0  0  0  0  0  0  0  0  0  0
    3.4050   -0.1791    0.2209 H   0  0  0  0  0  0  0  0  0  0  0  0
    2.1658    1.9384    0.3116 H   0  0  0  0  0  0  0  0  0  0  0  0
   -1.1321    2.4209    0.9268 H   0  0  0  0  0  0  0  0  0  0  0  0
    0.2660    3.1788    0.1666 H   0  0  0  0  0  0  0  0  0  0  0  0
   -1.0397    2.5355   -0.8321 H   0  0  0  0  0  0  0  0  0  0  0  0
  1  2  1  0  0  0  0
  2  3  1  0  0  0  0
  3  4  4  0  0  0  0
  4  5  4  0  0  0  0
  5  6  4  0  0  0  0
  6  7  4  0  0  0  0
  3  8  4  0  0  0  0
  7  8  4  0  0  0  0
  8  9  1  0  0  0  0
  1 10  1  0  0  0  0
  1 11  1  0  0  0  0
  1 12  1  0  0  0  0
  2 13  1  0  0  0  0
  2 14  1  0  0  0  0
  4 15  1  0  0  0  0
  5 16  1  0  0  0  0
  6 17  1  0  0  0  0
  7 18  1  0  0  0  0
  9 19  1  0  0  0  0
  9 20  1  0  0  0  0
  9 21  1  0  0  0  0
M  END
