 xtb: 6.7.1 (edcfbbe)
          04062511443D

 31 31  0     0  0            999 V2000
    3.7482    0.2313    0.0716 C   0  0  0  0  0  0  0  0  0  0  0  0
    2.2896    0.1698   -0.3730 C   0  0  0  0  0  0  0  0  0  0  0  0
    2.2567   -0.0366   -1.4490 H   0  0  0  0  0  0  0  0  0  0  0  0
    1.5663    1.4849   -0.1055 C   0  0  0  0  0  0  0  0  0  0  0  0
    0.1184    1.3925   -0.5695 C   0  0  0  0  0  0  0  0  0  0  0  0
   -0.6770    0.2802    0.1292 C   0  0  0  0  0  0  0  0  0  0  0  0
   -0.7205    0.4776    1.2056 H   0  0  0  0  0  0  0  0  0  0  0  0
    0.0687   -1.0562   -0.0464 C   0  0  0  0  0  0  0  0  0  0  0  0
    0.0038   -1.3574   -1.1067 H   0  0  0  0  0  0  0  0  0  0  0  0
    1.5436   -0.9377    0.3617 C   0  0  0  0  0  0  0  0  0  0  0  0
   -0.5418   -2.0456    0.7665 O   0  0  0  0  0  0  0  0  0  0  0  0
   -2.1223    0.2763   -0.4241 C   0  0  0  0  0  0  0  0  0  0  0  0
   -2.9395   -0.9564   -0.0403 C   0  0  0  0  0  0  0  0  0  0  0  0
   -2.8846    1.5142    0.0564 C   0  0  0  0  0  0  0  0  0  0  0  0
    4.2523   -0.7101   -0.1334 H   0  0  0  0  0  0  0  0  0  0  0  0
    4.2718    1.0245   -0.4562 H   0  0  0  0  0  0  0  0  0  0  0  0
    3.8103    0.4298    1.1392 H   0  0  0  0  0  0  0  0  0  0  0  0
    1.5980    1.7047    0.9638 H   0  0  0  0  0  0  0  0  0  0  0  0
    2.0645    2.3014   -0.6319 H   0  0  0  0  0  0  0  0  0  0  0  0
   -0.3673    2.3508   -0.3917 H   0  0  0  0  0  0  0  0  0  0  0  0
    0.1031    1.2052   -1.6465 H   0  0  0  0  0  0  0  0  0  0  0  0
    1.5774   -0.7430    1.4370 H   0  0  0  0  0  0  0  0  0  0  0  0
    2.0344   -1.8978    0.1789 H   0  0  0  0  0  0  0  0  0  0  0  0
   -0.0020   -2.8469    0.7415 H   0  0  0  0  0  0  0  0  0  0  0  0
   -2.0590    0.3100   -1.5188 H   0  0  0  0  0  0  0  0  0  0  0  0
   -3.9669   -0.8325   -0.3774 H   0  0  0  0  0  0  0  0  0  0  0  0
   -2.9390   -1.0932    1.0377 H   0  0  0  0  0  0  0  0  0  0  0  0
   -2.5395   -1.8571   -0.4937 H   0  0  0  0  0  0  0  0  0  0  0  0
   -2.4165    2.4369   -0.2724 H   0  0  0  0  0  0  0  0  0  0  0  0
   -2.9394    1.5202    1.1427 H   0  0  0  0  0  0  0  0  0  0  0  0
   -3.8988    1.4984   -0.3356 H   0  0  0  0  0  0  0  0  0  0  0  0
  1  2  1  0  0  0  0
  2  3  1  0  0  0  0
  2  4  1  0  0  0  0
  4  5  1  0  0  0  0
  5  6  1  0  0  0  0
  6  7  1  0  0  0  0
  6  8  1  0  0  0  0
  8  9  1  0  0  0  0
  2 10  1  0  0  0  0
  8 10  1  0  0  0  0
  8 11  1  0  0  0  0
  6 12  1  0  0  0  0
 12 13  1  0  0  0  0
 12 14  1  0  0  0  0
  1 15  1  0  0  0  0
  1 16  1  0  0  0  0
  1 17  1  0  0  0  0
  4 18  1  0  0  0  0
  4 19  1  0  0  0  0
  5 20  1  0  0  0  0
  5 21  1  0  0  0  0
 10 22  1  0  0  0  0
 10 23  1  0  0  0  0
 11 24  1  0  0  0  0
 12 25  1  0  0  0  0
 13 26  1  0  0  0  0
 13 27  1  0  0  0  0
 13 28  1  0  0  0  0
 14 29  1  0  0  0  0
 14 30  1  0  0  0  0
 14 31  1  0  0  0  0
M  END
