 xtb: 6.7.1 (edcfbbe)
          04052502593D

 19 19  0     0  0            999 V2000
   -2.6417    1.5093    0.1106 C   0  0  0  0  0  0  0  0  0  0  0  0
   -1.9527    0.1577   -0.0097 C   0  0  0  0  0  0  0  0  0  0  0  0
   -0.4481    0.1927    0.0128 C   0  0  0  0  0  0  0  0  0  0  0  0
    0.3031    1.3490    0.1331 C   0  0  0  0  0  0  0  0  0  0  0  0
    1.6893    1.3096    0.1470 C   0  0  0  0  0  0  0  0  0  0  0  0
    2.3463    0.0994    0.0394 C   0  0  0  0  0  0  0  0  0  0  0  0
    1.6168   -1.0713   -0.0820 C   0  0  0  0  0  0  0  0  0  0  0  0
    0.2308   -1.0297   -0.0957 C   0  0  0  0  0  0  0  0  0  0  0  0
   -0.5218   -2.1619   -0.2137 O   0  0  0  0  0  0  0  0  0  0  0  0
   -2.3608    2.1618   -0.7128 H   0  0  0  0  0  0  0  0  0  0  0  0
   -2.3834    1.9936    1.0493 H   0  0  0  0  0  0  0  0  0  0  0  0
   -3.7200    1.3719    0.0836 H   0  0  0  0  0  0  0  0  0  0  0  0
   -2.2616   -0.3300   -0.9394 H   0  0  0  0  0  0  0  0  0  0  0  0
   -2.2838   -0.4963    0.8030 H   0  0  0  0  0  0  0  0  0  0  0  0
   -0.1935    2.3019    0.2181 H   0  0  0  0  0  0  0  0  0  0  0  0
    2.2511    2.2262    0.2420 H   0  0  0  0  0  0  0  0  0  0  0  0
    3.4249    0.0590    0.0493 H   0  0  0  0  0  0  0  0  0  0  0  0
    2.1268   -2.0207   -0.1664 H   0  0  0  0  0  0  0  0  0  0  0  0
    0.0518   -2.9396   -0.2809 H   0  0  0  0  0  0  0  0  0  0  0  0
  1  2  1  0  0  0  0
  2  3  1  0  0  0  0
  3  4  4  0  0  0  0
  4  5  4  0  0  0  0
  5  6  4  0  0  0  0
  6  7  4  0  0  0  0
  3  8  4  0  0  0  0
  7  8  4  0  0  0  0
  8  9  1  0  0  0  0
  1 10  1  0  0  0  0
  1 11  1  0  0  0  0
  1 12  1  0  0  0  0
  2 13  1  0  0  0  0
  2 14  1  0  0  0  0
  4 15  1  0  0  0  0
  5 16  1  0  0  0  0
  6 17  1  0  0  0  0
  7 18  1  0  0  0  0
  9 19  1  0  0  0  0
M  END
