 xtb: 6.7.1 (edcfbbe)
          04062518003D

 24 24  0     0  0            999 V2000
   -2.5560   -0.6979   -0.2950 C   0  0  0  0  0  0  0  0  0  0  0  0
   -1.1670   -0.3102    0.2265 C   0  0  0  0  0  0  0  0  0  0  0  0
   -1.1996   -0.2376    1.3259 H   0  0  0  0  0  0  0  0  0  0  0  0
   -0.7048    1.0355   -0.3662 C   0  0  0  0  0  0  0  0  0  0  0  0
   -0.6806    0.9355   -1.4581 H   0  0  0  0  0  0  0  0  0  0  0  0
    0.7079    1.3323    0.1530 C   0  0  0  0  0  0  0  0  0  0  0  0
    0.6799    1.4478    1.2447 H   0  0  0  0  0  0  0  0  0  0  0  0
    1.6545    0.1627   -0.1725 C   0  0  0  0  0  0  0  0  0  0  0  0
    1.8013    0.0874   -1.2612 H   0  0  0  0  0  0  0  0  0  0  0  0
    1.0548   -1.1695    0.3016 C   0  0  0  0  0  0  0  0  0  0  0  0
    1.0718   -1.1751    1.4112 H   0  0  0  0  0  0  0  0  0  0  0  0
   -0.2714   -1.3426   -0.1495 O   0  0  0  0  0  0  0  0  0  0  0  0
    1.8121   -2.1923   -0.2238 O   0  0  0  0  0  0  0  0  0  0  0  0
    2.8856    0.3287    0.4802 O   0  0  0  0  0  0  0  0  0  0  0  0
    1.2319    2.5455   -0.3258 O   0  0  0  0  0  0  0  0  0  0  0  0
   -1.6034    2.0781   -0.1075 O   0  0  0  0  0  0  0  0  0  0  0  0
   -3.1409   -1.7355    0.4454 O   0  0  0  0  0  0  0  0  0  0  0  0
   -2.4631   -0.9705   -1.3525 H   0  0  0  0  0  0  0  0  0  0  0  0
   -3.2195    0.1635   -0.2019 H   0  0  0  0  0  0  0  0  0  0  0  0
    1.4319   -3.0506    0.0216 H   0  0  0  0  0  0  0  0  0  0  0  0
    3.2053    1.2283    0.3019 H   0  0  0  0  0  0  0  0  0  0  0  0
    1.0804    2.6217   -1.2789 H   0  0  0  0  0  0  0  0  0  0  0  0
   -1.5711    2.3240    0.8287 H   0  0  0  0  0  0  0  0  0  0  0  0
   -2.6005   -2.5319    0.3462 H   0  0  0  0  0  0  0  0  0  0  0  0
  1  2  1  0  0  0  0
  2  3  1  0  0  0  0
  2  4  1  0  0  0  0
  4  5  1  0  0  0  0
  4  6  1  0  0  0  0
  6  7  1  0  0  0  0
  6  8  1  0  0  0  0
  8  9  1  0  0  0  0
  8 10  1  0  0  0  0
 10 11  1  0  0  0  0
  2 12  1  0  0  0  0
 10 12  1  0  0  0  0
 10 13  1  0  0  0  0
  8 14  1  0  0  0  0
  6 15  1  0  0  0  0
  4 16  1  0  0  0  0
  1 17  1  0  0  0  0
  1 18  1  0  0  0  0
  1 19  1  0  0  0  0
 13 20  1  0  0  0  0
 14 21  1  0  0  0  0
 15 22  1  0  0  0  0
 16 23  1  0  0  0  0
 17 24  1  0  0  0  0
M  END
