 xtb: 6.7.1 (edcfbbe)
          04062518003D

 24 24  0     0  0            999 V2000
   -2.4376   -0.6890    0.0307 C   0  0  0  0  0  0  0  0  0  0  0  0
   -1.0063   -0.2442    0.3561 C   0  0  0  0  0  0  0  0  0  0  0  0
   -0.9345    0.0066    1.4238 H   0  0  0  0  0  0  0  0  0  0  0  0
   -0.5534    0.9621   -0.4759 C   0  0  0  0  0  0  0  0  0  0  0  0
   -0.5873    0.6702   -1.5372 H   0  0  0  0  0  0  0  0  0  0  0  0
    0.9025    1.3274   -0.1111 C   0  0  0  0  0  0  0  0  0  0  0  0
    0.8594    2.1450    0.6198 H   0  0  0  0  0  0  0  0  0  0  0  0
    1.6535    0.1577    0.5498 C   0  0  0  0  0  0  0  0  0  0  0  0
    2.7210    0.2939    0.3250 H   0  0  0  0  0  0  0  0  0  0  0  0
    1.1971   -1.1548   -0.1034 C   0  0  0  0  0  0  0  0  0  0  0  0
    1.6834   -2.0255    0.3580 H   0  0  0  0  0  0  0  0  0  0  0  0
   -0.1829   -1.3789    0.0779 O   0  0  0  0  0  0  0  0  0  0  0  0
    1.5527   -1.1930   -1.4509 O   0  0  0  0  0  0  0  0  0  0  0  0
    1.4150    0.1897    1.9313 O   0  0  0  0  0  0  0  0  0  0  0  0
    1.6355    1.6927   -1.2575 O   0  0  0  0  0  0  0  0  0  0  0  0
   -1.3252    2.1161   -0.2527 O   0  0  0  0  0  0  0  0  0  0  0  0
   -2.8251   -1.7973    0.8002 O   0  0  0  0  0  0  0  0  0  0  0  0
   -2.5005   -0.9285   -1.0401 H   0  0  0  0  0  0  0  0  0  0  0  0
   -3.1432    0.1054    0.2784 H   0  0  0  0  0  0  0  0  0  0  0  0
    1.5752   -0.2948   -1.8266 H   0  0  0  0  0  0  0  0  0  0  0  0
    1.9941   -0.4398    2.3847 H   0  0  0  0  0  0  0  0  0  0  0  0
    1.3170    2.5441   -1.5909 H   0  0  0  0  0  0  0  0  0  0  0  0
   -2.2124    2.0090   -0.6212 H   0  0  0  0  0  0  0  0  0  0  0  0
   -2.1470   -2.4817    0.7013 H   0  0  0  0  0  0  0  0  0  0  0  0
  1  2  1  0  0  0  0
  2  3  1  0  0  0  0
  2  4  1  0  0  0  0
  4  5  1  0  0  0  0
  4  6  1  0  0  0  0
  6  7  1  0  0  0  0
  6  8  1  0  0  0  0
  8  9  1  0  0  0  0
  8 10  1  0  0  0  0
 10 11  1  0  0  0  0
  2 12  1  0  0  0  0
 10 12  1  0  0  0  0
 10 13  1  0  0  0  0
  8 14  1  0  0  0  0
  6 15  1  0  0  0  0
  4 16  1  0  0  0  0
  1 17  1  0  0  0  0
  1 18  1  0  0  0  0
  1 19  1  0  0  0  0
 13 20  1  0  0  0  0
 14 21  1  0  0  0  0
 15 22  1  0  0  0  0
 16 23  1  0  0  0  0
 17 24  1  0  0  0  0
M  END
