 xtb: 6.7.1 (edcfbbe)
          04062518003D

 24 24  0     0  0            999 V2000
   -2.5486   -0.6805   -0.3876 C   0  0  0  0  0  0  0  0  0  0  0  0
   -1.1755   -0.3133    0.1692 C   0  0  0  0  0  0  0  0  0  0  0  0
   -1.2495   -0.2682    1.2670 H   0  0  0  0  0  0  0  0  0  0  0  0
   -0.6963    1.0478   -0.3534 C   0  0  0  0  0  0  0  0  0  0  0  0
   -0.6495    1.0096   -1.4529 H   0  0  0  0  0  0  0  0  0  0  0  0
    0.7165    1.3185    0.1788 C   0  0  0  0  0  0  0  0  0  0  0  0
    0.6585    1.4243    1.2763 H   0  0  0  0  0  0  0  0  0  0  0  0
    1.6537    0.1490   -0.1618 C   0  0  0  0  0  0  0  0  0  0  0  0
    1.7730    0.0821   -1.2486 H   0  0  0  0  0  0  0  0  0  0  0  0
    1.0243   -1.1656    0.3291 C   0  0  0  0  0  0  0  0  0  0  0  0
    0.9509   -1.1344    1.4413 H   0  0  0  0  0  0  0  0  0  0  0  0
   -0.2659   -1.3285   -0.2067 O   0  0  0  0  0  0  0  0  0  0  0  0
    1.8014   -2.2273   -0.0840 O   0  0  0  0  0  0  0  0  0  0  0  0
    2.9387    0.3771    0.3520 O   0  0  0  0  0  0  0  0  0  0  0  0
    1.1754    2.5222   -0.3871 O   0  0  0  0  0  0  0  0  0  0  0  0
   -1.5994    2.0352    0.0662 O   0  0  0  0  0  0  0  0  0  0  0  0
   -3.0968   -1.7058    0.4071 O   0  0  0  0  0  0  0  0  0  0  0  0
   -2.4183   -1.0117   -1.4241 H   0  0  0  0  0  0  0  0  0  0  0  0
   -3.1726    0.2198   -0.3545 H   0  0  0  0  0  0  0  0  0  0  0  0
    1.2733   -3.0411   -0.0534 H   0  0  0  0  0  0  0  0  0  0  0  0
    2.9666    0.1724    1.2980 H   0  0  0  0  0  0  0  0  0  0  0  0
    2.1380    2.5675   -0.2783 H   0  0  0  0  0  0  0  0  0  0  0  0
   -1.2269    2.9016   -0.1616 H   0  0  0  0  0  0  0  0  0  0  0  0
   -3.9520   -1.9691    0.0385 H   0  0  0  0  0  0  0  0  0  0  0  0
  1  2  1  0  0  0  0
  2  3  1  0  0  0  0
  2  4  1  0  0  0  0
  4  5  1  0  0  0  0
  4  6  1  0  0  0  0
  6  7  1  0  0  0  0
  6  8  1  0  0  0  0
  8  9  1  0  0  0  0
  8 10  1  0  0  0  0
 10 11  1  0  0  0  0
  2 12  1  0  0  0  0
 10 12  1  0  0  0  0
 10 13  1  0  0  0  0
  8 14  1  0  0  0  0
  6 15  1  0  0  0  0
  4 16  1  0  0  0  0
  1 17  1  0  0  0  0
  1 18  1  0  0  0  0
  1 19  1  0  0  0  0
 13 20  1  0  0  0  0
 14 21  1  0  0  0  0
 15 22  1  0  0  0  0
 16 23  1  0  0  0  0
 17 24  1  0  0  0  0
M  END
