 xtb: 6.7.1 (edcfbbe)
          04062520053D

 27 27  0     0  0            999 V2000
   -3.4487    0.5929   -0.0565 C   0  0  0  0  0  0  0  0  0  0  0  0
   -1.9500    0.5165   -0.0420 C   0  0  0  0  0  0  0  0  0  0  0  0
   -1.1821    1.4091   -0.6517 C   0  0  0  0  0  0  0  0  0  0  0  0
    0.3137    1.3892   -0.6550 C   0  0  0  0  0  0  0  0  0  0  0  0
    0.8567    0.0190   -0.2549 C   0  0  0  0  0  0  0  0  0  0  0  0
    0.5799   -0.7014   -1.0354 H   0  0  0  0  0  0  0  0  0  0  0  0
    0.1283   -0.4203    1.0211 C   0  0  0  0  0  0  0  0  0  0  0  0
   -1.3513   -0.6496    0.7142 C   0  0  0  0  0  0  0  0  0  0  0  0
   -1.8981   -0.7774    1.6649 H   0  0  0  0  0  0  0  0  0  0  0  0
   -1.4417   -1.8654   -0.0246 O   0  0  0  0  0  0  0  0  0  0  0  0
    2.3561   -0.0427   -0.0969 C   0  0  0  0  0  0  0  0  0  0  0  0
    3.1644    1.0011   -0.2005 C   0  0  0  0  0  0  0  0  0  0  0  0
    2.9083   -1.4132    0.1798 C   0  0  0  0  0  0  0  0  0  0  0  0
   -3.8798   -0.2638   -0.5737 H   0  0  0  0  0  0  0  0  0  0  0  0
   -3.7797    1.4961   -0.5613 H   0  0  0  0  0  0  0  0  0  0  0  0
   -3.8349    0.5973    0.9622 H   0  0  0  0  0  0  0  0  0  0  0  0
   -1.6392    2.2406   -1.1726 H   0  0  0  0  0  0  0  0  0  0  0  0
    0.6805    1.6670   -1.6454 H   0  0  0  0  0  0  0  0  0  0  0  0
    0.6641    2.1475    0.0526 H   0  0  0  0  0  0  0  0  0  0  0  0
    0.5375   -1.3562    1.3993 H   0  0  0  0  0  0  0  0  0  0  0  0
    0.2274    0.3480    1.7889 H   0  0  0  0  0  0  0  0  0  0  0  0
   -2.3624   -2.0182   -0.2718 H   0  0  0  0  0  0  0  0  0  0  0  0
    4.2307    0.8889   -0.0930 H   0  0  0  0  0  0  0  0  0  0  0  0
    2.8207    2.0007   -0.3938 H   0  0  0  0  0  0  0  0  0  0  0  0
    2.8512   -1.6348    1.2450 H   0  0  0  0  0  0  0  0  0  0  0  0
    2.3397   -2.1724   -0.3525 H   0  0  0  0  0  0  0  0  0  0  0  0
    3.9515   -1.4749   -0.1186 H   0  0  0  0  0  0  0  0  0  0  0  0
  1  2  1  0  0  0  0
  2  3  2  0  0  0  0
  3  4  1  0  0  0  0
  4  5  1  0  0  0  0
  5  6  1  0  0  0  0
  5  7  1  0  0  0  0
  2  8  1  0  0  0  0
  7  8  1  0  0  0  0
  8  9  1  0  0  0  0
  8 10  1  0  0  0  0
  5 11  1  0  0  0  0
 11 12  2  0  0  0  0
 11 13  1  0  0  0  0
  1 14  1  0  0  0  0
  1 15  1  0  0  0  0
  1 16  1  0  0  0  0
  3 17  1  0  0  0  0
  4 18  1  0  0  0  0
  4 19  1  0  0  0  0
  7 20  1  0  0  0  0
  7 21  1  0  0  0  0
 10 22  1  0  0  0  0
 12 23  1  0  0  0  0
 12 24  1  0  0  0  0
 13 25  1  0  0  0  0
 13 26  1  0  0  0  0
 13 27  1  0  0  0  0
M  END
