 xtb: 6.7.1 (edcfbbe)
          04062518003D

 24 24  0     0  0            999 V2000
   -2.2684   -0.6872   -0.8099 C   0  0  0  0  0  0  0  0  0  0  0  0
   -1.1140   -0.5717    0.1857 C   0  0  0  0  0  0  0  0  0  0  0  0
   -1.4279   -1.0023    1.1520 H   0  0  0  0  0  0  0  0  0  0  0  0
   -0.7244    0.9032    0.4266 C   0  0  0  0  0  0  0  0  0  0  0  0
   -1.5661    1.5348    0.1215 H   0  0  0  0  0  0  0  0  0  0  0  0
    0.4986    1.2638   -0.4298 C   0  0  0  0  0  0  0  0  0  0  0  0
    0.7831    2.3023   -0.1967 H   0  0  0  0  0  0  0  0  0  0  0  0
    1.6849    0.3678   -0.0118 C   0  0  0  0  0  0  0  0  0  0  0  0
    2.4112    0.2979   -0.8285 H   0  0  0  0  0  0  0  0  0  0  0  0
    1.1934   -1.0684    0.2848 C   0  0  0  0  0  0  0  0  0  0  0  0
    1.0779   -1.1785    1.3846 H   0  0  0  0  0  0  0  0  0  0  0  0
   -0.0444   -1.3385   -0.3348 O   0  0  0  0  0  0  0  0  0  0  0  0
    2.1192   -1.9651   -0.2104 O   0  0  0  0  0  0  0  0  0  0  0  0
    2.3781    0.9197    1.0738 O   0  0  0  0  0  0  0  0  0  0  0  0
    0.1361    1.1378   -1.7774 O   0  0  0  0  0  0  0  0  0  0  0  0
   -0.3753    1.1478    1.7709 O   0  0  0  0  0  0  0  0  0  0  0  0
   -3.4093   -0.0992   -0.2291 O   0  0  0  0  0  0  0  0  0  0  0  0
   -2.4290   -1.7507   -1.0205 H   0  0  0  0  0  0  0  0  0  0  0  0
   -1.9738   -0.1768   -1.7330 H   0  0  0  0  0  0  0  0  0  0  0  0
    1.7385   -2.8578   -0.2107 H   0  0  0  0  0  0  0  0  0  0  0  0
    1.7417    1.0988    1.7866 H   0  0  0  0  0  0  0  0  0  0  0  0
    0.8936    1.3510   -2.3410 H   0  0  0  0  0  0  0  0  0  0  0  0
   -1.1759    1.1948    2.3122 H   0  0  0  0  0  0  0  0  0  0  0  0
   -4.1440   -0.1505   -0.8565 H   0  0  0  0  0  0  0  0  0  0  0  0
  1  2  1  0  0  0  0
  2  3  1  0  0  0  0
  2  4  1  0  0  0  0
  4  5  1  0  0  0  0
  4  6  1  0  0  0  0
  6  7  1  0  0  0  0
  6  8  1  0  0  0  0
  8  9  1  0  0  0  0
  8 10  1  0  0  0  0
 10 11  1  0  0  0  0
  2 12  1  0  0  0  0
 10 12  1  0  0  0  0
 10 13  1  0  0  0  0
  8 14  1  0  0  0  0
  6 15  1  0  0  0  0
  4 16  1  0  0  0  0
  1 17  1  0  0  0  0
  1 18  1  0  0  0  0
  1 19  1  0  0  0  0
 13 20  1  0  0  0  0
 14 21  1  0  0  0  0
 15 22  1  0  0  0  0
 16 23  1  0  0  0  0
 17 24  1  0  0  0  0
M  END
