 xtb: 6.7.1 (edcfbbe)
          04062518003D

 24 24  0     0  0            999 V2000
   -1.7769   -1.0171   -0.6846 C   0  0  0  0  0  0  0  0  0  0  0  0
   -1.0493   -0.4743    0.5594 C   0  0  0  0  0  0  0  0  0  0  0  0
   -1.7116   -0.5747    1.4290 H   0  0  0  0  0  0  0  0  0  0  0  0
   -0.7055    1.0164    0.4170 C   0  0  0  0  0  0  0  0  0  0  0  0
   -1.5612    1.5118   -0.0540 H   0  0  0  0  0  0  0  0  0  0  0  0
    0.5352    1.2455   -0.4680 C   0  0  0  0  0  0  0  0  0  0  0  0
    0.8363    2.2963   -0.3135 H   0  0  0  0  0  0  0  0  0  0  0  0
    1.6927    0.3437    0.0080 C   0  0  0  0  0  0  0  0  0  0  0  0
    2.4885    0.3398   -0.7496 H   0  0  0  0  0  0  0  0  0  0  0  0
    1.2467   -1.1199    0.1617 C   0  0  0  0  0  0  0  0  0  0  0  0
    2.0068   -1.6323    0.7740 H   0  0  0  0  0  0  0  0  0  0  0  0
    0.0762   -1.2731    0.9168 O   0  0  0  0  0  0  0  0  0  0  0  0
    1.1631   -1.6783   -1.1108 O   0  0  0  0  0  0  0  0  0  0  0  0
    2.1813    0.7596    1.2615 O   0  0  0  0  0  0  0  0  0  0  0  0
    0.1909    1.0306   -1.8095 O   0  0  0  0  0  0  0  0  0  0  0  0
   -0.5333    1.6271    1.6727 O   0  0  0  0  0  0  0  0  0  0  0  0
   -3.0513   -0.4457   -0.8404 O   0  0  0  0  0  0  0  0  0  0  0  0
   -1.8430   -2.1088   -0.5964 H   0  0  0  0  0  0  0  0  0  0  0  0
   -1.2169   -0.7607   -1.5850 H   0  0  0  0  0  0  0  0  0  0  0  0
    0.9985   -2.6305   -1.0456 H   0  0  0  0  0  0  0  0  0  0  0  0
    2.6865    1.5801    1.1619 H   0  0  0  0  0  0  0  0  0  0  0  0
    0.9503    1.2138   -2.3813 H   0  0  0  0  0  0  0  0  0  0  0  0
    0.2368    1.2217    2.1069 H   0  0  0  0  0  0  0  0  0  0  0  0
   -3.6181   -0.7109   -0.1016 H   0  0  0  0  0  0  0  0  0  0  0  0
  1  2  1  0  0  0  0
  2  3  1  0  0  0  0
  2  4  1  0  0  0  0
  4  5  1  0  0  0  0
  4  6  1  0  0  0  0
  6  7  1  0  0  0  0
  6  8  1  0  0  0  0
  8  9  1  0  0  0  0
  8 10  1  0  0  0  0
 10 11  1  0  0  0  0
  2 12  1  0  0  0  0
 10 12  1  0  0  0  0
 10 13  1  0  0  0  0
  8 14  1  0  0  0  0
  6 15  1  0  0  0  0
  4 16  1  0  0  0  0
  1 17  1  0  0  0  0
  1 18  1  0  0  0  0
  1 19  1  0  0  0  0
 13 20  1  0  0  0  0
 14 21  1  0  0  0  0
 15 22  1  0  0  0  0
 16 23  1  0  0  0  0
 17 24  1  0  0  0  0
M  END
