 xtb: 6.7.1 (edcfbbe)
          04062518003D

 24 24  0     0  0            999 V2000
   -2.5512   -0.6567   -0.3612 C   0  0  0  0  0  0  0  0  0  0  0  0
   -1.1709   -0.3116    0.2121 C   0  0  0  0  0  0  0  0  0  0  0  0
   -1.2254   -0.2622    1.3112 H   0  0  0  0  0  0  0  0  0  0  0  0
   -0.6974    1.0574   -0.3008 C   0  0  0  0  0  0  0  0  0  0  0  0
   -0.7024    1.0497   -1.4018 H   0  0  0  0  0  0  0  0  0  0  0  0
    0.7401    1.3244    0.1663 C   0  0  0  0  0  0  0  0  0  0  0  0
    0.7487    1.4202    1.2641 H   0  0  0  0  0  0  0  0  0  0  0  0
    1.6429    0.1506   -0.2202 C   0  0  0  0  0  0  0  0  0  0  0  0
    1.6955    0.0866   -1.3184 H   0  0  0  0  0  0  0  0  0  0  0  0
    1.0311   -1.1575    0.3237 C   0  0  0  0  0  0  0  0  0  0  0  0
    1.0304   -1.1093    1.4282 H   0  0  0  0  0  0  0  0  0  0  0  0
   -0.2694   -1.3325   -0.1707 O   0  0  0  0  0  0  0  0  0  0  0  0
    1.7918   -2.2568   -0.0382 O   0  0  0  0  0  0  0  0  0  0  0  0
    2.9191    0.3793    0.3225 O   0  0  0  0  0  0  0  0  0  0  0  0
    1.1602    2.5294   -0.4249 O   0  0  0  0  0  0  0  0  0  0  0  0
   -1.5790    2.0333    0.1864 O   0  0  0  0  0  0  0  0  0  0  0  0
   -3.1629   -1.7506    0.2672 O   0  0  0  0  0  0  0  0  0  0  0  0
   -2.4299   -0.9443   -1.4070 H   0  0  0  0  0  0  0  0  0  0  0  0
   -3.1746    0.2422   -0.2965 H   0  0  0  0  0  0  0  0  0  0  0  0
    1.4304   -2.6303   -0.8574 H   0  0  0  0  0  0  0  0  0  0  0  0
    3.4472   -0.4290    0.2372 H   0  0  0  0  0  0  0  0  0  0  0  0
    2.0951    2.6677   -0.2134 H   0  0  0  0  0  0  0  0  0  0  0  0
   -1.2240    2.9054   -0.0467 H   0  0  0  0  0  0  0  0  0  0  0  0
   -3.3581   -1.5292    1.1889 H   0  0  0  0  0  0  0  0  0  0  0  0
  1  2  1  0  0  0  0
  2  3  1  0  0  0  0
  2  4  1  0  0  0  0
  4  5  1  0  0  0  0
  4  6  1  0  0  0  0
  6  7  1  0  0  0  0
  6  8  1  0  0  0  0
  8  9  1  0  0  0  0
  8 10  1  0  0  0  0
 10 11  1  0  0  0  0
  2 12  1  0  0  0  0
 10 12  1  0  0  0  0
 10 13  1  0  0  0  0
  8 14  1  0  0  0  0
  6 15  1  0  0  0  0
  4 16  1  0  0  0  0
  1 17  1  0  0  0  0
  1 18  1  0  0  0  0
  1 19  1  0  0  0  0
 13 20  1  0  0  0  0
 14 21  1  0  0  0  0
 15 22  1  0  0  0  0
 16 23  1  0  0  0  0
 17 24  1  0  0  0  0
M  END
