 xtb: 6.7.1 (edcfbbe)
          04062518003D

 24 24  0     0  0            999 V2000
   -2.4120   -1.1061   -0.3593 C   0  0  0  0  0  0  0  0  0  0  0  0
   -1.0762   -0.6095    0.2157 C   0  0  0  0  0  0  0  0  0  0  0  0
   -1.1391   -0.6250    1.3164 H   0  0  0  0  0  0  0  0  0  0  0  0
   -0.7614    0.8299   -0.2519 C   0  0  0  0  0  0  0  0  0  0  0  0
   -0.7700    0.8577   -1.3480 H   0  0  0  0  0  0  0  0  0  0  0  0
    0.6380    1.2256    0.2332 C   0  0  0  0  0  0  0  0  0  0  0  0
    0.6343    1.2599    1.3389 H   0  0  0  0  0  0  0  0  0  0  0  0
    1.6594    0.1667   -0.2206 C   0  0  0  0  0  0  0  0  0  0  0  0
    1.6878    0.1546   -1.3161 H   0  0  0  0  0  0  0  0  0  0  0  0
    1.2092   -1.2179    0.2876 C   0  0  0  0  0  0  0  0  0  0  0  0
    1.1859   -1.2092    1.3924 H   0  0  0  0  0  0  0  0  0  0  0  0
   -0.0763   -1.5095   -0.2189 O   0  0  0  0  0  0  0  0  0  0  0  0
    2.0673   -2.2345   -0.0646 O   0  0  0  0  0  0  0  0  0  0  0  0
    2.9562    0.5098    0.1929 O   0  0  0  0  0  0  0  0  0  0  0  0
    0.9661    2.4947   -0.2723 O   0  0  0  0  0  0  0  0  0  0  0  0
   -1.7591    1.7284    0.1617 O   0  0  0  0  0  0  0  0  0  0  0  0
   -3.5174   -0.4730    0.2234 O   0  0  0  0  0  0  0  0  0  0  0  0
   -2.5080   -2.1721   -0.1431 H   0  0  0  0  0  0  0  0  0  0  0  0
   -2.4018   -0.9688   -1.4480 H   0  0  0  0  0  0  0  0  0  0  0  0
    2.0002   -2.4105   -1.0161 H   0  0  0  0  0  0  0  0  0  0  0  0
    3.1031    0.2418    1.1115 H   0  0  0  0  0  0  0  0  0  0  0  0
    1.9306    2.5986   -0.2386 H   0  0  0  0  0  0  0  0  0  0  0  0
   -1.5553    2.0752    1.0421 H   0  0  0  0  0  0  0  0  0  0  0  0
   -3.4223    0.4865    0.0922 H   0  0  0  0  0  0  0  0  0  0  0  0
  1  2  1  0  0  0  0
  2  3  1  0  0  0  0
  2  4  1  0  0  0  0
  4  5  1  0  0  0  0
  4  6  1  0  0  0  0
  6  7  1  0  0  0  0
  6  8  1  0  0  0  0
  8  9  1  0  0  0  0
  8 10  1  0  0  0  0
 10 11  1  0  0  0  0
  2 12  1  0  0  0  0
 10 12  1  0  0  0  0
 10 13  1  0  0  0  0
  8 14  1  0  0  0  0
  6 15  1  0  0  0  0
  4 16  1  0  0  0  0
  1 17  1  0  0  0  0
  1 18  1  0  0  0  0
  1 19  1  0  0  0  0
 13 20  1  0  0  0  0
 14 21  1  0  0  0  0
 15 22  1  0  0  0  0
 16 23  1  0  0  0  0
 17 24  1  0  0  0  0
M  END
