 xtb: 6.7.1 (edcfbbe)
          04042513193D

 12 11  0     0  0            999 V2000
   -2.7685    0.0796    0.1127 C   0  0  0  0  0  0  0  0  0  0  0  0
   -1.4831    0.4456    0.6266 O   0  0  0  0  0  0  0  0  0  0  0  0
   -0.4144   -0.0089   -0.0062 C   0  0  0  0  0  0  0  0  0  0  0  0
   -0.4493   -0.7084   -0.9906 O   0  0  0  0  0  0  0  0  0  0  0  0
    0.8461    0.4857    0.6875 C   0  0  0  0  0  0  0  0  0  0  0  0
    2.0427    0.0299    0.0370 C   0  0  0  0  0  0  0  0  0  0  0  0
    3.0046   -0.3248   -0.4702 N   0  0  0  0  0  0  0  0  0  0  0  0
   -3.4807    0.7162    0.6279 H   0  0  0  0  0  0  0  0  0  0  0  0
   -2.9636   -0.9722    0.3223 H   0  0  0  0  0  0  0  0  0  0  0  0
   -2.8007    0.2410   -0.9651 H   0  0  0  0  0  0  0  0  0  0  0  0
    0.8369    0.1340    1.7229 H   0  0  0  0  0  0  0  0  0  0  0  0
    0.8322    1.5790    0.7018 H   0  0  0  0  0  0  0  0  0  0  0  0
  1  2  1  0  0  0  0
  2  3  1  0  0  0  0
  3  4  2  0  0  0  0
  3  5  1  0  0  0  0
  5  6  1  0  0  0  0
  6  7  3  0  0  0  0
  1  8  1  0  0  0  0
  1  9  1  0  0  0  0
  1 10  1  0  0  0  0
  5 11  1  0  0  0  0
  5 12  1  0  0  0  0
M  END
