 xtb: 6.7.1 (edcfbbe)
          04062518003D

 24 24  0     0  0            999 V2000
   -2.2985   -0.9002    0.7557 C   0  0  0  0  0  0  0  0  0  0  0  0
   -0.8532   -0.3839    0.7534 C   0  0  0  0  0  0  0  0  0  0  0  0
   -0.5671   -0.1117    1.7787 H   0  0  0  0  0  0  0  0  0  0  0  0
   -0.6644    0.8366   -0.1585 C   0  0  0  0  0  0  0  0  0  0  0  0
   -0.9047    0.5267   -1.1867 H   0  0  0  0  0  0  0  0  0  0  0  0
    0.8063    1.2980   -0.1071 C   0  0  0  0  0  0  0  0  0  0  0  0
    0.8670    2.1200    0.6180 H   0  0  0  0  0  0  0  0  0  0  0  0
    1.7511    0.1833    0.3773 C   0  0  0  0  0  0  0  0  0  0  0  0
    2.7359    0.3813   -0.0697 H   0  0  0  0  0  0  0  0  0  0  0  0
    1.2500   -1.1624   -0.1674 C   0  0  0  0  0  0  0  0  0  0  0  0
    1.8750   -1.9965    0.1806 H   0  0  0  0  0  0  0  0  0  0  0  0
   -0.0470   -1.4701    0.2964 O   0  0  0  0  0  0  0  0  0  0  0  0
    1.3185   -1.1927   -1.5598 O   0  0  0  0  0  0  0  0  0  0  0  0
    1.8119    0.2161    1.7782 O   0  0  0  0  0  0  0  0  0  0  0  0
    1.2596    1.6955   -1.3813 O   0  0  0  0  0  0  0  0  0  0  0  0
   -1.4587    1.9330    0.2229 O   0  0  0  0  0  0  0  0  0  0  0  0
   -2.7906   -1.1298   -0.5406 O   0  0  0  0  0  0  0  0  0  0  0  0
   -2.9532   -0.1585    1.2148 H   0  0  0  0  0  0  0  0  0  0  0  0
   -2.3265   -1.8183    1.3530 H   0  0  0  0  0  0  0  0  0  0  0  0
    1.2047   -0.2986   -1.9292 H   0  0  0  0  0  0  0  0  0  0  0  0
    2.5132   -0.3717    2.0947 H   0  0  0  0  0  0  0  0  0  0  0  0
    0.8093    2.5104   -1.6468 H   0  0  0  0  0  0  0  0  0  0  0  0
   -2.3858    1.7471    0.0184 H   0  0  0  0  0  0  0  0  0  0  0  0
   -2.2520   -1.8226   -0.9492 H   0  0  0  0  0  0  0  0  0  0  0  0
  1  2  1  0  0  0  0
  2  3  1  0  0  0  0
  2  4  1  0  0  0  0
  4  5  1  0  0  0  0
  4  6  1  0  0  0  0
  6  7  1  0  0  0  0
  6  8  1  0  0  0  0
  8  9  1  0  0  0  0
  8 10  1  0  0  0  0
 10 11  1  0  0  0  0
  2 12  1  0  0  0  0
 10 12  1  0  0  0  0
 10 13  1  0  0  0  0
  8 14  1  0  0  0  0
  6 15  1  0  0  0  0
  4 16  1  0  0  0  0
  1 17  1  0  0  0  0
  1 18  1  0  0  0  0
  1 19  1  0  0  0  0
 13 20  1  0  0  0  0
 14 21  1  0  0  0  0
 15 22  1  0  0  0  0
 16 23  1  0  0  0  0
 17 24  1  0  0  0  0
M  END
