 xtb: 6.7.1 (edcfbbe)
          04042518543D

 15 14  0     0  0            999 V2000
    1.2808   -1.2135    0.2446 C   0  0  0  0  0  0  0  0  0  0  0  0
    0.4816   -0.0976   -0.4380 C   0  0  0  0  0  0  0  0  0  0  0  0
    0.9109    1.2657    0.0951 C   0  0  0  0  0  0  0  0  0  0  0  0
   -0.9860   -0.3769   -0.2768 C   0  0  0  0  0  0  0  0  0  0  0  0
   -1.8848    0.3949    0.3050 C   0  0  0  0  0  0  0  0  0  0  0  0
    2.3466   -1.0648    0.0898 H   0  0  0  0  0  0  0  0  0  0  0  0
    1.0052   -2.1858   -0.1570 H   0  0  0  0  0  0  0  0  0  0  0  0
    1.0827   -1.2138    1.3143 H   0  0  0  0  0  0  0  0  0  0  0  0
    0.7023   -0.1347   -1.5131 H   0  0  0  0  0  0  0  0  0  0  0  0
    0.3638    2.0628   -0.4021 H   0  0  0  0  0  0  0  0  0  0  0  0
    0.7321    1.3300    1.1658 H   0  0  0  0  0  0  0  0  0  0  0  0
    1.9731    1.4151   -0.0840 H   0  0  0  0  0  0  0  0  0  0  0  0
   -1.2939   -1.3317   -0.6868 H   0  0  0  0  0  0  0  0  0  0  0  0
   -2.9176    0.0971    0.3757 H   0  0  0  0  0  0  0  0  0  0  0  0
   -1.6419    1.3520    0.7321 H   0  0  0  0  0  0  0  0  0  0  0  0
  1  2  1  0  0  0  0
  2  3  1  0  0  0  0
  2  4  1  0  0  0  0
  4  5  2  0  0  0  0
  1  6  1  0  0  0  0
  1  7  1  0  0  0  0
  1  8  1  0  0  0  0
  2  9  1  0  0  0  0
  3 10  1  0  0  0  0
  3 11  1  0  0  0  0
  3 12  1  0  0  0  0
  4 13  1  0  0  0  0
  5 14  1  0  0  0  0
  5 15  1  0  0  0  0
M  END
