 xtb: 6.7.1 (edcfbbe)
          04062518003D

 24 24  0     0  0            999 V2000
   -2.5242   -0.9653    0.3803 C   0  0  0  0  0  0  0  0  0  0  0  0
   -1.0958   -0.4605    0.6318 C   0  0  0  0  0  0  0  0  0  0  0  0
   -0.9294   -0.3631    1.7159 H   0  0  0  0  0  0  0  0  0  0  0  0
   -0.8269    0.8995   -0.0358 C   0  0  0  0  0  0  0  0  0  0  0  0
   -0.9942    0.8019   -1.1167 H   0  0  0  0  0  0  0  0  0  0  0  0
    0.6375    1.2824    0.2035 C   0  0  0  0  0  0  0  0  0  0  0  0
    0.7813    1.4321    1.2861 H   0  0  0  0  0  0  0  0  0  0  0  0
    1.5824    0.1698   -0.2643 C   0  0  0  0  0  0  0  0  0  0  0  0
    1.5440    0.1033   -1.3613 H   0  0  0  0  0  0  0  0  0  0  0  0
    1.1485   -1.1869    0.3080 C   0  0  0  0  0  0  0  0  0  0  0  0
    1.3558   -1.1755    1.3982 H   0  0  0  0  0  0  0  0  0  0  0  0
   -0.2222   -1.4387    0.0956 O   0  0  0  0  0  0  0  0  0  0  0  0
    1.8565   -2.1774   -0.3349 O   0  0  0  0  0  0  0  0  0  0  0  0
    2.8927    0.4084    0.1747 O   0  0  0  0  0  0  0  0  0  0  0  0
    0.9893    2.4519   -0.4940 O   0  0  0  0  0  0  0  0  0  0  0  0
   -1.6152    1.9316    0.5064 O   0  0  0  0  0  0  0  0  0  0  0  0
   -2.8527   -0.9899   -0.9839 O   0  0  0  0  0  0  0  0  0  0  0  0
   -3.2378   -0.2961    0.8627 H   0  0  0  0  0  0  0  0  0  0  0  0
   -2.6162   -1.9633    0.8236 H   0  0  0  0  0  0  0  0  0  0  0  0
    1.5548   -3.0486   -0.0310 H   0  0  0  0  0  0  0  0  0  0  0  0
    3.1773    1.2665   -0.1767 H   0  0  0  0  0  0  0  0  0  0  0  0
    0.3538    3.1465   -0.2636 H   0  0  0  0  0  0  0  0  0  0  0  0
   -2.5171    1.8665    0.1633 H   0  0  0  0  0  0  0  0  0  0  0  0
   -2.2626   -1.6138   -1.4301 H   0  0  0  0  0  0  0  0  0  0  0  0
  1  2  1  0  0  0  0
  2  3  1  0  0  0  0
  2  4  1  0  0  0  0
  4  5  1  0  0  0  0
  4  6  1  0  0  0  0
  6  7  1  0  0  0  0
  6  8  1  0  0  0  0
  8  9  1  0  0  0  0
  8 10  1  0  0  0  0
 10 11  1  0  0  0  0
  2 12  1  0  0  0  0
 10 12  1  0  0  0  0
 10 13  1  0  0  0  0
  8 14  1  0  0  0  0
  6 15  1  0  0  0  0
  4 16  1  0  0  0  0
  1 17  1  0  0  0  0
  1 18  1  0  0  0  0
  1 19  1  0  0  0  0
 13 20  1  0  0  0  0
 14 21  1  0  0  0  0
 15 22  1  0  0  0  0
 16 23  1  0  0  0  0
 17 24  1  0  0  0  0
M  END
