 xtb: 6.7.1 (edcfbbe)
          04062518003D

 24 24  0     0  0            999 V2000
   -2.5399   -0.9380    0.3328 C   0  0  0  0  0  0  0  0  0  0  0  0
   -1.1107   -0.4584    0.6263 C   0  0  0  0  0  0  0  0  0  0  0  0
   -0.9697   -0.3775    1.7149 H   0  0  0  0  0  0  0  0  0  0  0  0
   -0.8283    0.9213   -0.0024 C   0  0  0  0  0  0  0  0  0  0  0  0
   -1.0470    0.8635   -1.0768 H   0  0  0  0  0  0  0  0  0  0  0  0
    0.6553    1.2955    0.1802 C   0  0  0  0  0  0  0  0  0  0  0  0
    0.8440    1.4798    1.2432 H   0  0  0  0  0  0  0  0  0  0  0  0
    1.5591    0.1488   -0.2954 C   0  0  0  0  0  0  0  0  0  0  0  0
    1.4588    0.0334   -1.3868 H   0  0  0  0  0  0  0  0  0  0  0  0
    1.1191   -1.1770    0.3489 C   0  0  0  0  0  0  0  0  0  0  0  0
    1.2835   -1.1063    1.4447 H   0  0  0  0  0  0  0  0  0  0  0  0
   -0.2387   -1.4425    0.0995 O   0  0  0  0  0  0  0  0  0  0  0  0
    1.8718   -2.1894   -0.2126 O   0  0  0  0  0  0  0  0  0  0  0  0
    2.8843    0.4504    0.0502 O   0  0  0  0  0  0  0  0  0  0  0  0
    0.9669    2.5069   -0.4500 O   0  0  0  0  0  0  0  0  0  0  0  0
   -1.6028    1.9172    0.6209 O   0  0  0  0  0  0  0  0  0  0  0  0
   -2.8207   -0.9724   -1.0420 O   0  0  0  0  0  0  0  0  0  0  0  0
   -3.2516   -0.2453    0.7831 H   0  0  0  0  0  0  0  0  0  0  0  0
   -2.6701   -1.9283    0.7835 H   0  0  0  0  0  0  0  0  0  0  0  0
    1.5273   -3.0528    0.0646 H   0  0  0  0  0  0  0  0  0  0  0  0
    3.4559   -0.2805   -0.2310 H   0  0  0  0  0  0  0  0  0  0  0  0
    0.8690    2.4169   -1.4099 H   0  0  0  0  0  0  0  0  0  0  0  0
   -2.4525    2.0068    0.1685 H   0  0  0  0  0  0  0  0  0  0  0  0
   -2.2364   -1.6227   -1.4576 H   0  0  0  0  0  0  0  0  0  0  0  0
  1  2  1  0  0  0  0
  2  3  1  0  0  0  0
  2  4  1  0  0  0  0
  4  5  1  0  0  0  0
  4  6  1  0  0  0  0
  6  7  1  0  0  0  0
  6  8  1  0  0  0  0
  8  9  1  0  0  0  0
  8 10  1  0  0  0  0
 10 11  1  0  0  0  0
  2 12  1  0  0  0  0
 10 12  1  0  0  0  0
 10 13  1  0  0  0  0
  8 14  1  0  0  0  0
  6 15  1  0  0  0  0
  4 16  1  0  0  0  0
  1 17  1  0  0  0  0
  1 18  1  0  0  0  0
  1 19  1  0  0  0  0
 13 20  1  0  0  0  0
 14 21  1  0  0  0  0
 15 22  1  0  0  0  0
 16 23  1  0  0  0  0
 17 24  1  0  0  0  0
M  END
