 xtb: 6.7.1 (edcfbbe)
          04062505073D

 29 29  0     0  0            999 V2000
   -3.0511    0.0774    0.3046 C   0  0  0  0  0  0  0  0  0  0  0  0
   -1.9978   -0.2542   -0.7512 C   0  0  0  0  0  0  0  0  0  0  0  0
   -2.5149   -0.4154   -1.7032 H   0  0  0  0  0  0  0  0  0  0  0  0
   -1.2053   -1.5178   -0.4109 C   0  0  0  0  0  0  0  0  0  0  0  0
   -0.3076   -1.3236    0.8061 C   0  0  0  0  0  0  0  0  0  0  0  0
    0.6656   -0.1444    0.6385 C   0  0  0  0  0  0  0  0  0  0  0  0
    1.1521    0.0550    1.6008 H   0  0  0  0  0  0  0  0  0  0  0  0
   -0.1534    1.0753    0.2849 C   0  0  0  0  0  0  0  0  0  0  0  0
   -0.1316    2.0901    0.9571 O   0  0  0  0  0  0  0  0  0  0  0  0
   -1.0304    0.9288   -0.9270 C   0  0  0  0  0  0  0  0  0  0  0  0
    1.7792   -0.3870   -0.4042 C   0  0  0  0  0  0  0  0  0  0  0  0
    2.5975    0.8905   -0.5933 C   0  0  0  0  0  0  0  0  0  0  0  0
    2.7026   -1.5247    0.0264 C   0  0  0  0  0  0  0  0  0  0  0  0
   -3.6903   -0.7825    0.4891 H   0  0  0  0  0  0  0  0  0  0  0  0
   -2.5870    0.3761    1.2420 H   0  0  0  0  0  0  0  0  0  0  0  0
   -3.6747    0.9019   -0.0330 H   0  0  0  0  0  0  0  0  0  0  0  0
   -1.9001   -2.3359   -0.2134 H   0  0  0  0  0  0  0  0  0  0  0  0
   -0.5993   -1.8028   -1.2720 H   0  0  0  0  0  0  0  0  0  0  0  0
   -0.9250   -1.1327    1.6859 H   0  0  0  0  0  0  0  0  0  0  0  0
    0.2561   -2.2354    1.0007 H   0  0  0  0  0  0  0  0  0  0  0  0
   -1.5836    1.8567   -1.0826 H   0  0  0  0  0  0  0  0  0  0  0  0
   -0.3954    0.7482   -1.7952 H   0  0  0  0  0  0  0  0  0  0  0  0
    1.3246   -0.6539   -1.3618 H   0  0  0  0  0  0  0  0  0  0  0  0
    1.9718    1.7153   -0.9294 H   0  0  0  0  0  0  0  0  0  0  0  0
    3.3828    0.7328   -1.3286 H   0  0  0  0  0  0  0  0  0  0  0  0
    3.0597    1.1853    0.3466 H   0  0  0  0  0  0  0  0  0  0  0  0
    3.5252   -1.6154   -0.6787 H   0  0  0  0  0  0  0  0  0  0  0  0
    2.1786   -2.4753    0.0541 H   0  0  0  0  0  0  0  0  0  0  0  0
    3.1175   -1.3258    1.0119 H   0  0  0  0  0  0  0  0  0  0  0  0
  1  2  1  0  0  0  0
  2  3  1  0  0  0  0
  2  4  1  0  0  0  0
  4  5  1  0  0  0  0
  5  6  1  0  0  0  0
  6  7  1  0  0  0  0
  6  8  1  0  0  0  0
  8  9  2  0  0  0  0
  2 10  1  0  0  0  0
  8 10  1  0  0  0  0
  6 11  1  0  0  0  0
 11 12  1  0  0  0  0
 11 13  1  0  0  0  0
  1 14  1  0  0  0  0
  1 15  1  0  0  0  0
  1 16  1  0  0  0  0
  4 17  1  0  0  0  0
  4 18  1  0  0  0  0
  5 19  1  0  0  0  0
  5 20  1  0  0  0  0
 10 21  1  0  0  0  0
 10 22  1  0  0  0  0
 11 23  1  0  0  0  0
 12 24  1  0  0  0  0
 12 25  1  0  0  0  0
 12 26  1  0  0  0  0
 13 27  1  0  0  0  0
 13 28  1  0  0  0  0
 13 29  1  0  0  0  0
M  END
