 xtb: 6.7.1 (edcfbbe)
          04062518003D

 24 24  0     0  0            999 V2000
   -2.5617   -0.6757   -0.3132 C   0  0  0  0  0  0  0  0  0  0  0  0
   -1.1734   -0.3101    0.2246 C   0  0  0  0  0  0  0  0  0  0  0  0
   -1.2144   -0.2531    1.3245 H   0  0  0  0  0  0  0  0  0  0  0  0
   -0.6982    1.0426   -0.3428 C   0  0  0  0  0  0  0  0  0  0  0  0
   -0.6876    0.9670   -1.4371 H   0  0  0  0  0  0  0  0  0  0  0  0
    0.7278    1.3351    0.1611 C   0  0  0  0  0  0  0  0  0  0  0  0
    0.7212    1.4408    1.2532 H   0  0  0  0  0  0  0  0  0  0  0  0
    1.6464    0.1568   -0.1948 C   0  0  0  0  0  0  0  0  0  0  0  0
    1.7363    0.0764   -1.2895 H   0  0  0  0  0  0  0  0  0  0  0  0
    1.0307   -1.1595    0.3165 C   0  0  0  0  0  0  0  0  0  0  0  0
    1.0192   -1.1304    1.4271 H   0  0  0  0  0  0  0  0  0  0  0  0
   -0.2819   -1.3449   -0.1565 O   0  0  0  0  0  0  0  0  0  0  0  0
    1.8173   -2.1929   -0.1517 O   0  0  0  0  0  0  0  0  0  0  0  0
    2.9010    0.3715    0.3940 O   0  0  0  0  0  0  0  0  0  0  0  0
    1.2112    2.5632   -0.3065 O   0  0  0  0  0  0  0  0  0  0  0  0
   -1.5903    2.0819   -0.0500 O   0  0  0  0  0  0  0  0  0  0  0  0
   -3.1568   -1.7296    0.3956 O   0  0  0  0  0  0  0  0  0  0  0  0
   -2.4672   -0.9191   -1.3777 H   0  0  0  0  0  0  0  0  0  0  0  0
   -3.2181    0.1884   -0.1982 H   0  0  0  0  0  0  0  0  0  0  0  0
    1.3966   -3.0467    0.0333 H   0  0  0  0  0  0  0  0  0  0  0  0
    3.4788   -0.3781    0.1848 H   0  0  0  0  0  0  0  0  0  0  0  0
    1.2914    2.5473   -1.2711 H   0  0  0  0  0  0  0  0  0  0  0  0
   -1.4728    2.3757    0.8650 H   0  0  0  0  0  0  0  0  0  0  0  0
   -2.6221   -2.5271    0.2757 H   0  0  0  0  0  0  0  0  0  0  0  0
  1  2  1  0  0  0  0
  2  3  1  0  0  0  0
  2  4  1  0  0  0  0
  4  5  1  0  0  0  0
  4  6  1  0  0  0  0
  6  7  1  0  0  0  0
  6  8  1  0  0  0  0
  8  9  1  0  0  0  0
  8 10  1  0  0  0  0
 10 11  1  0  0  0  0
  2 12  1  0  0  0  0
 10 12  1  0  0  0  0
 10 13  1  0  0  0  0
  8 14  1  0  0  0  0
  6 15  1  0  0  0  0
  4 16  1  0  0  0  0
  1 17  1  0  0  0  0
  1 18  1  0  0  0  0
  1 19  1  0  0  0  0
 13 20  1  0  0  0  0
 14 21  1  0  0  0  0
 15 22  1  0  0  0  0
 16 23  1  0  0  0  0
 17 24  1  0  0  0  0
M  END
