 xtb: 6.7.1 (edcfbbe)
          04062518003D

 24 24  0     0  0            999 V2000
   -2.3536   -0.8371    0.6271 C   0  0  0  0  0  0  0  0  0  0  0  0
   -0.8905   -0.3786    0.6661 C   0  0  0  0  0  0  0  0  0  0  0  0
   -0.5762   -0.2820    1.7131 H   0  0  0  0  0  0  0  0  0  0  0  0
   -0.7214    0.9812   -0.0235 C   0  0  0  0  0  0  0  0  0  0  0  0
   -1.2447    0.9429   -0.9896 H   0  0  0  0  0  0  0  0  0  0  0  0
    0.7765    1.2837   -0.3035 C   0  0  0  0  0  0  0  0  0  0  0  0
    0.9963    2.2762    0.1092 H   0  0  0  0  0  0  0  0  0  0  0  0
    1.6998    0.2534    0.3716 C   0  0  0  0  0  0  0  0  0  0  0  0
    2.7138    0.3878   -0.0352 H   0  0  0  0  0  0  0  0  0  0  0  0
    1.2704   -1.1677   -0.0230 C   0  0  0  0  0  0  0  0  0  0  0  0
    1.7392   -1.8733    0.6872 H   0  0  0  0  0  0  0  0  0  0  0  0
   -0.1241   -1.3781    0.0110 O   0  0  0  0  0  0  0  0  0  0  0  0
    1.7201   -1.3902   -1.3205 O   0  0  0  0  0  0  0  0  0  0  0  0
    1.7073    0.3334    1.7722 O   0  0  0  0  0  0  0  0  0  0  0  0
    1.0512    1.3729   -1.6796 O   0  0  0  0  0  0  0  0  0  0  0  0
   -1.2999    1.9452    0.8230 O   0  0  0  0  0  0  0  0  0  0  0  0
   -2.8399   -0.9890   -0.6809 O   0  0  0  0  0  0  0  0  0  0  0  0
   -2.9663   -0.0704    1.1031 H   0  0  0  0  0  0  0  0  0  0  0  0
   -2.4418   -1.7760    1.1860 H   0  0  0  0  0  0  0  0  0  0  0  0
    1.4978   -2.2923   -1.5989 H   0  0  0  0  0  0  0  0  0  0  0  0
    2.0687    1.1878    2.0505 H   0  0  0  0  0  0  0  0  0  0  0  0
    1.1776    0.4790   -2.0391 H   0  0  0  0  0  0  0  0  0  0  0  0
   -1.4536    2.7615    0.3268 H   0  0  0  0  0  0  0  0  0  0  0  0
   -2.3100   -1.6677   -1.1229 H   0  0  0  0  0  0  0  0  0  0  0  0
  1  2  1  0  0  0  0
  2  3  1  0  0  0  0
  2  4  1  0  0  0  0
  4  5  1  0  0  0  0
  4  6  1  0  0  0  0
  6  7  1  0  0  0  0
  6  8  1  0  0  0  0
  8  9  1  0  0  0  0
  8 10  1  0  0  0  0
 10 11  1  0  0  0  0
  2 12  1  0  0  0  0
 10 12  1  0  0  0  0
 10 13  1  0  0  0  0
  8 14  1  0  0  0  0
  6 15  1  0  0  0  0
  4 16  1  0  0  0  0
  1 17  1  0  0  0  0
  1 18  1  0  0  0  0
  1 19  1  0  0  0  0
 13 20  1  0  0  0  0
 14 21  1  0  0  0  0
 15 22  1  0  0  0  0
 16 23  1  0  0  0  0
 17 24  1  0  0  0  0
M  END
