 xtb: 6.7.1 (edcfbbe)
          04062518003D

 24 24  0     0  0            999 V2000
   -2.1371   -1.1979   -0.1358 C   0  0  0  0  0  0  0  0  0  0  0  0
   -1.2301   -0.3639    0.7829 C   0  0  0  0  0  0  0  0  0  0  0  0
   -1.7854   -0.2023    1.7136 H   0  0  0  0  0  0  0  0  0  0  0  0
   -0.8917    1.0042    0.1544 C   0  0  0  0  0  0  0  0  0  0  0  0
   -1.1587    1.0016   -0.9081 H   0  0  0  0  0  0  0  0  0  0  0  0
    0.6149    1.2899    0.2522 C   0  0  0  0  0  0  0  0  0  0  0  0
    0.9170    1.3821    1.3083 H   0  0  0  0  0  0  0  0  0  0  0  0
    1.3914    0.1251   -0.3651 C   0  0  0  0  0  0  0  0  0  0  0  0
    1.1172    0.0667   -1.4276 H   0  0  0  0  0  0  0  0  0  0  0  0
    1.0041   -1.2051    0.3374 C   0  0  0  0  0  0  0  0  0  0  0  0
    1.8368   -1.5109    0.9834 H   0  0  0  0  0  0  0  0  0  0  0  0
   -0.0729   -1.0602    1.2315 O   0  0  0  0  0  0  0  0  0  0  0  0
    0.8206   -2.2423   -0.5673 O   0  0  0  0  0  0  0  0  0  0  0  0
    2.7662    0.3819   -0.2212 O   0  0  0  0  0  0  0  0  0  0  0  0
    0.9321    2.4669   -0.4468 O   0  0  0  0  0  0  0  0  0  0  0  0
   -1.6381    2.0550    0.7153 O   0  0  0  0  0  0  0  0  0  0  0  0
   -1.5835   -1.2859   -1.4368 O   0  0  0  0  0  0  0  0  0  0  0  0
   -3.1103   -0.6987   -0.1722 H   0  0  0  0  0  0  0  0  0  0  0  0
   -2.2480   -2.1960    0.3031 H   0  0  0  0  0  0  0  0  0  0  0  0
    0.0287   -2.0439   -1.1140 H   0  0  0  0  0  0  0  0  0  0  0  0
    3.2698   -0.1986   -0.8088 H   0  0  0  0  0  0  0  0  0  0  0  0
    0.2621    3.1363   -0.2327 H   0  0  0  0  0  0  0  0  0  0  0  0
   -1.4655    2.1114    1.6671 H   0  0  0  0  0  0  0  0  0  0  0  0
   -2.2226   -1.7137   -2.0249 H   0  0  0  0  0  0  0  0  0  0  0  0
  1  2  1  0  0  0  0
  2  3  1  0  0  0  0
  2  4  1  0  0  0  0
  4  5  1  0  0  0  0
  4  6  1  0  0  0  0
  6  7  1  0  0  0  0
  6  8  1  0  0  0  0
  8  9  1  0  0  0  0
  8 10  1  0  0  0  0
 10 11  1  0  0  0  0
  2 12  1  0  0  0  0
 10 12  1  0  0  0  0
 10 13  1  0  0  0  0
  8 14  1  0  0  0  0
  6 15  1  0  0  0  0
  4 16  1  0  0  0  0
  1 17  1  0  0  0  0
  1 18  1  0  0  0  0
  1 19  1  0  0  0  0
 13 20  1  0  0  0  0
 14 21  1  0  0  0  0
 15 22  1  0  0  0  0
 16 23  1  0  0  0  0
 17 24  1  0  0  0  0
M  END
