 xtb: 6.7.1 (edcfbbe)
          04052503223D

 18 18  0     0  0            999 V2000
   -2.7471   -0.0001    0.7342 C   0  0  0  0  0  0  0  0  0  0  0  0
   -1.9716    0.0001   -0.5854 C   0  0  0  0  0  0  0  0  0  0  0  0
   -0.4919    0.0000   -0.3255 C   0  0  0  0  0  0  0  0  0  0  0  0
    0.2016   -1.1949   -0.1801 C   0  0  0  0  0  0  0  0  0  0  0  0
    1.5567   -1.1970    0.0998 C   0  0  0  0  0  0  0  0  0  0  0  0
    2.2384   -0.0001    0.2407 C   0  0  0  0  0  0  0  0  0  0  0  0
    1.5568    1.1969    0.0999 C   0  0  0  0  0  0  0  0  0  0  0  0
    0.2017    1.1950   -0.1800 C   0  0  0  0  0  0  0  0  0  0  0  0
   -3.8176   -0.0001    0.5451 H   0  0  0  0  0  0  0  0  0  0  0  0
   -2.4960    0.8815    1.3196 H   0  0  0  0  0  0  0  0  0  0  0  0
   -2.4959   -0.8816    1.3196 H   0  0  0  0  0  0  0  0  0  0  0  0
   -2.2451    0.8851   -1.1628 H   0  0  0  0  0  0  0  0  0  0  0  0
   -2.2452   -0.8847   -1.1630 H   0  0  0  0  0  0  0  0  0  0  0  0
   -0.3254   -2.1320   -0.2904 H   0  0  0  0  0  0  0  0  0  0  0  0
    2.0827   -2.1342    0.2072 H   0  0  0  0  0  0  0  0  0  0  0  0
    3.2962   -0.0001    0.4577 H   0  0  0  0  0  0  0  0  0  0  0  0
    2.0828    2.1342    0.2073 H   0  0  0  0  0  0  0  0  0  0  0  0
   -0.3253    2.1322   -0.2903 H   0  0  0  0  0  0  0  0  0  0  0  0
  1  2  1  0  0  0  0
  2  3  1  0  0  0  0
  3  4  4  0  0  0  0
  4  5  4  0  0  0  0
  5  6  4  0  0  0  0
  6  7  4  0  0  0  0
  3  8  4  0  0  0  0
  7  8  4  0  0  0  0
  1  9  1  0  0  0  0
  1 10  1  0  0  0  0
  1 11  1  0  0  0  0
  2 12  1  0  0  0  0
  2 13  1  0  0  0  0
  4 14  1  0  0  0  0
  5 15  1  0  0  0  0
  6 16  1  0  0  0  0
  7 17  1  0  0  0  0
  8 18  1  0  0  0  0
M  END
