 xtb: 6.7.1 (edcfbbe)
          04062518003D

 24 24  0     0  0            999 V2000
   -2.4892   -1.0882    0.2819 C   0  0  0  0  0  0  0  0  0  0  0  0
   -1.0700   -0.5744    0.5647 C   0  0  0  0  0  0  0  0  0  0  0  0
   -0.9153   -0.5311    1.6546 H   0  0  0  0  0  0  0  0  0  0  0  0
   -0.8246    0.8251   -0.0263 C   0  0  0  0  0  0  0  0  0  0  0  0
   -0.9677    0.7695   -1.1131 H   0  0  0  0  0  0  0  0  0  0  0  0
    0.6240    1.2506    0.2511 C   0  0  0  0  0  0  0  0  0  0  0  0
    0.7529    1.3438    1.3434 H   0  0  0  0  0  0  0  0  0  0  0  0
    1.5881    0.1822   -0.2833 C   0  0  0  0  0  0  0  0  0  0  0  0
    1.4983    0.1480   -1.3743 H   0  0  0  0  0  0  0  0  0  0  0  0
    1.1937   -1.1944    0.3050 C   0  0  0  0  0  0  0  0  0  0  0  0
    1.3298   -1.1699    1.4010 H   0  0  0  0  0  0  0  0  0  0  0  0
   -0.1529   -1.4947    0.0030 O   0  0  0  0  0  0  0  0  0  0  0  0
    1.9851   -2.2246   -0.1485 O   0  0  0  0  0  0  0  0  0  0  0  0
    2.9339    0.4769   -0.0364 O   0  0  0  0  0  0  0  0  0  0  0  0
    0.9172    2.4764   -0.3685 O   0  0  0  0  0  0  0  0  0  0  0  0
   -1.6665    1.7975    0.5424 O   0  0  0  0  0  0  0  0  0  0  0  0
   -2.9676   -0.5566   -0.9330 O   0  0  0  0  0  0  0  0  0  0  0  0
   -3.1445   -0.7877    1.1088 H   0  0  0  0  0  0  0  0  0  0  0  0
   -2.4288   -2.1799    0.2447 H   0  0  0  0  0  0  0  0  0  0  0  0
    1.8640   -2.3398   -1.1041 H   0  0  0  0  0  0  0  0  0  0  0  0
    3.0812    0.6118    0.9109 H   0  0  0  0  0  0  0  0  0  0  0  0
    0.2260    3.1105   -0.1216 H   0  0  0  0  0  0  0  0  0  0  0  0
   -2.5575    1.6860    0.1813 H   0  0  0  0  0  0  0  0  0  0  0  0
   -3.7403   -1.0617   -1.2211 H   0  0  0  0  0  0  0  0  0  0  0  0
  1  2  1  0  0  0  0
  2  3  1  0  0  0  0
  2  4  1  0  0  0  0
  4  5  1  0  0  0  0
  4  6  1  0  0  0  0
  6  7  1  0  0  0  0
  6  8  1  0  0  0  0
  8  9  1  0  0  0  0
  8 10  1  0  0  0  0
 10 11  1  0  0  0  0
  2 12  1  0  0  0  0
 10 12  1  0  0  0  0
 10 13  1  0  0  0  0
  8 14  1  0  0  0  0
  6 15  1  0  0  0  0
  4 16  1  0  0  0  0
  1 17  1  0  0  0  0
  1 18  1  0  0  0  0
  1 19  1  0  0  0  0
 13 20  1  0  0  0  0
 14 21  1  0  0  0  0
 15 22  1  0  0  0  0
 16 23  1  0  0  0  0
 17 24  1  0  0  0  0
M  END
