 xtb: 6.7.1 (edcfbbe)
          04062518003D

 24 24  0     0  0            999 V2000
   -2.4783   -0.7955   -0.0248 C   0  0  0  0  0  0  0  0  0  0  0  0
   -1.1022   -0.5309    0.5856 C   0  0  0  0  0  0  0  0  0  0  0  0
   -1.0991   -0.8754    1.6324 H   0  0  0  0  0  0  0  0  0  0  0  0
   -0.7411    0.9809    0.5893 C   0  0  0  0  0  0  0  0  0  0  0  0
   -1.6236    1.5562    0.2887 H   0  0  0  0  0  0  0  0  0  0  0  0
    0.3875    1.2524   -0.4140 C   0  0  0  0  0  0  0  0  0  0  0  0
    0.7191    2.2927   -0.2922 H   0  0  0  0  0  0  0  0  0  0  0  0
    1.6052    0.3563   -0.0840 C   0  0  0  0  0  0  0  0  0  0  0  0
    2.2541    0.3453   -0.9690 H   0  0  0  0  0  0  0  0  0  0  0  0
    1.1546   -1.0981    0.2246 C   0  0  0  0  0  0  0  0  0  0  0  0
    1.2567   -1.2693    1.3120 H   0  0  0  0  0  0  0  0  0  0  0  0
   -0.1789   -1.3039   -0.1637 O   0  0  0  0  0  0  0  0  0  0  0  0
    1.9410   -2.0490   -0.4013 O   0  0  0  0  0  0  0  0  0  0  0  0
    2.2645    0.9272    1.0238 O   0  0  0  0  0  0  0  0  0  0  0  0
   -0.0132    1.1020   -1.7486 O   0  0  0  0  0  0  0  0  0  0  0  0
   -0.4079    1.4256    1.8819 O   0  0  0  0  0  0  0  0  0  0  0  0
   -2.5251   -0.1987   -1.3015 O   0  0  0  0  0  0  0  0  0  0  0  0
   -3.2415   -0.3691    0.6361 H   0  0  0  0  0  0  0  0  0  0  0  0
   -2.6124   -1.8800   -0.0980 H   0  0  0  0  0  0  0  0  0  0  0  0
    1.6331   -2.1635   -1.3137 H   0  0  0  0  0  0  0  0  0  0  0  0
    3.1408    0.5306    1.1309 H   0  0  0  0  0  0  0  0  0  0  0  0
   -0.7780    0.4995   -1.7968 H   0  0  0  0  0  0  0  0  0  0  0  0
    0.5495    1.3277    2.0197 H   0  0  0  0  0  0  0  0  0  0  0  0
   -3.3587   -0.4250   -1.7371 H   0  0  0  0  0  0  0  0  0  0  0  0
  1  2  1  0  0  0  0
  2  3  1  0  0  0  0
  2  4  1  0  0  0  0
  4  5  1  0  0  0  0
  4  6  1  0  0  0  0
  6  7  1  0  0  0  0
  6  8  1  0  0  0  0
  8  9  1  0  0  0  0
  8 10  1  0  0  0  0
 10 11  1  0  0  0  0
  2 12  1  0  0  0  0
 10 12  1  0  0  0  0
 10 13  1  0  0  0  0
  8 14  1  0  0  0  0
  6 15  1  0  0  0  0
  4 16  1  0  0  0  0
  1 17  1  0  0  0  0
  1 18  1  0  0  0  0
  1 19  1  0  0  0  0
 13 20  1  0  0  0  0
 14 21  1  0  0  0  0
 15 22  1  0  0  0  0
 16 23  1  0  0  0  0
 17 24  1  0  0  0  0
M  END
