 xtb: 6.7.1 (edcfbbe)
          04062518003D

 24 24  0     0  0            999 V2000
   -1.6861   -1.3329   -0.5919 C   0  0  0  0  0  0  0  0  0  0  0  0
   -1.1479   -0.4836    0.5689 C   0  0  0  0  0  0  0  0  0  0  0  0
   -1.9121   -0.4400    1.3519 H   0  0  0  0  0  0  0  0  0  0  0  0
   -0.8619    0.9707    0.1460 C   0  0  0  0  0  0  0  0  0  0  0  0
   -1.1904    1.1194   -0.8926 H   0  0  0  0  0  0  0  0  0  0  0  0
    0.6418    1.2660    0.2145 C   0  0  0  0  0  0  0  0  0  0  0  0
    0.9359    1.3686    1.2711 H   0  0  0  0  0  0  0  0  0  0  0  0
    1.4196    0.0952   -0.3914 C   0  0  0  0  0  0  0  0  0  0  0  0
    1.0587   -0.0837   -1.4138 H   0  0  0  0  0  0  0  0  0  0  0  0
    1.1607   -1.1633    0.4565 C   0  0  0  0  0  0  0  0  0  0  0  0
    1.9462   -1.2325    1.2255 H   0  0  0  0  0  0  0  0  0  0  0  0
   -0.0330   -1.0973    1.1983 O   0  0  0  0  0  0  0  0  0  0  0  0
    1.1989   -2.2681   -0.3953 O   0  0  0  0  0  0  0  0  0  0  0  0
    2.7804    0.4446   -0.4030 O   0  0  0  0  0  0  0  0  0  0  0  0
    0.8829    2.4628   -0.4798 O   0  0  0  0  0  0  0  0  0  0  0  0
   -1.5844    1.8224    1.0000 O   0  0  0  0  0  0  0  0  0  0  0  0
   -2.8656   -0.7330   -1.0706 O   0  0  0  0  0  0  0  0  0  0  0  0
   -1.8828   -2.3408   -0.2071 H   0  0  0  0  0  0  0  0  0  0  0  0
   -0.9304   -1.3973   -1.3852 H   0  0  0  0  0  0  0  0  0  0  0  0
    1.1485   -3.0893    0.1175 H   0  0  0  0  0  0  0  0  0  0  0  0
    3.2873   -0.2192   -0.8918 H   0  0  0  0  0  0  0  0  0  0  0  0
    1.8423    2.5727   -0.5685 H   0  0  0  0  0  0  0  0  0  0  0  0
   -1.4181    2.7393    0.7344 H   0  0  0  0  0  0  0  0  0  0  0  0
   -3.2571   -1.2995   -1.7510 H   0  0  0  0  0  0  0  0  0  0  0  0
  1  2  1  0  0  0  0
  2  3  1  0  0  0  0
  2  4  1  0  0  0  0
  4  5  1  0  0  0  0
  4  6  1  0  0  0  0
  6  7  1  0  0  0  0
  6  8  1  0  0  0  0
  8  9  1  0  0  0  0
  8 10  1  0  0  0  0
 10 11  1  0  0  0  0
  2 12  1  0  0  0  0
 10 12  1  0  0  0  0
 10 13  1  0  0  0  0
  8 14  1  0  0  0  0
  6 15  1  0  0  0  0
  4 16  1  0  0  0  0
  1 17  1  0  0  0  0
  1 18  1  0  0  0  0
  1 19  1  0  0  0  0
 13 20  1  0  0  0  0
 14 21  1  0  0  0  0
 15 22  1  0  0  0  0
 16 23  1  0  0  0  0
 17 24  1  0  0  0  0
M  END
