 xtb: 6.7.1 (edcfbbe)
          04052512103D

 26 25  0     0  0            999 V2000
   -2.1121   -0.8829    0.8872 C   0  0  0  0  0  0  0  0  0  0  0  0
   -1.5990    0.3955    0.2221 C   0  0  0  0  0  0  0  0  0  0  0  0
   -1.8741    0.3561   -1.2787 C   0  0  0  0  0  0  0  0  0  0  0  0
   -0.1506    0.7594    0.6089 C   0  0  0  0  0  0  0  0  0  0  0  0
    1.0856    0.0323    0.0322 C   0  0  0  0  0  0  0  0  0  0  0  0
    1.3996    0.4830   -1.3981 C   0  0  0  0  0  0  0  0  0  0  0  0
    2.2752    0.4380    0.9172 C   0  0  0  0  0  0  0  0  0  0  0  0
    0.9672   -1.4914    0.0687 C   0  0  0  0  0  0  0  0  0  0  0  0
   -1.8771   -0.8849    1.9490 H   0  0  0  0  0  0  0  0  0  0  0  0
   -3.1936   -0.9412    0.7798 H   0  0  0  0  0  0  0  0  0  0  0  0
   -1.6845   -1.7721    0.4366 H   0  0  0  0  0  0  0  0  0  0  0  0
   -2.2001    1.2183    0.6336 H   0  0  0  0  0  0  0  0  0  0  0  0
   -1.4199   -0.5168   -1.7396 H   0  0  0  0  0  0  0  0  0  0  0  0
   -2.9474    0.3020   -1.4521 H   0  0  0  0  0  0  0  0  0  0  0  0
   -1.4955    1.2517   -1.7642 H   0  0  0  0  0  0  0  0  0  0  0  0
   -0.0174    1.8204    0.3778 H   0  0  0  0  0  0  0  0  0  0  0  0
   -0.1000    0.6680    1.6977 H   0  0  0  0  0  0  0  0  0  0  0  0
    0.6466    0.1456   -2.1014 H   0  0  0  0  0  0  0  0  0  0  0  0
    2.3579    0.0728   -1.7115 H   0  0  0  0  0  0  0  0  0  0  0  0
    1.4619    1.5677   -1.4529 H   0  0  0  0  0  0  0  0  0  0  0  0
    3.1996    0.0144    0.5308 H   0  0  0  0  0  0  0  0  0  0  0  0
    2.1380    0.0812    1.9357 H   0  0  0  0  0  0  0  0  0  0  0  0
    2.3816    1.5202    0.9445 H   0  0  0  0  0  0  0  0  0  0  0  0
    0.2305   -1.8468   -0.6455 H   0  0  0  0  0  0  0  0  0  0  0  0
    0.6909   -1.8325    1.0629 H   0  0  0  0  0  0  0  0  0  0  0  0
    1.9248   -1.9394   -0.1911 H   0  0  0  0  0  0  0  0  0  0  0  0
  1  2  1  0  0  0  0
  2  3  1  0  0  0  0
  2  4  1  0  0  0  0
  4  5  1  0  0  0  0
  5  6  1  0  0  0  0
  5  7  1  0  0  0  0
  5  8  1  0  0  0  0
  1  9  1  0  0  0  0
  1 10  1  0  0  0  0
  1 11  1  0  0  0  0
  2 12  1  0  0  0  0
  3 13  1  0  0  0  0
  3 14  1  0  0  0  0
  3 15  1  0  0  0  0
  4 16  1  0  0  0  0
  4 17  1  0  0  0  0
  6 18  1  0  0  0  0
  6 19  1  0  0  0  0
  6 20  1  0  0  0  0
  7 21  1  0  0  0  0
  7 22  1  0  0  0  0
  7 23  1  0  0  0  0
  8 24  1  0  0  0  0
  8 25  1  0  0  0  0
  8 26  1  0  0  0  0
M  END
