 xtb: 6.7.1 (edcfbbe)
          04052516073D

 27 27  0     0  0            999 V2000
   -2.4846    0.4308   -1.3677 C   0  0  0  0  0  0  0  0  0  0  0  0
   -2.0524    0.4505    0.1063 C   0  0  0  0  0  0  0  0  0  0  0  0
   -2.9592    0.4777    0.7188 H   0  0  0  0  0  0  0  0  0  0  0  0
   -1.1550    1.6630    0.4273 C   0  0  0  0  0  0  0  0  0  0  0  0
    0.2699    1.2530    0.7906 C   0  0  0  0  0  0  0  0  0  0  0  0
    0.7993    0.2853   -0.2665 C   0  0  0  0  0  0  0  0  0  0  0  0
    0.5866    0.7164   -1.2498 H   0  0  0  0  0  0  0  0  0  0  0  0
    0.0338   -1.0396   -0.1147 C   0  0  0  0  0  0  0  0  0  0  0  0
   -1.3733   -0.8688    0.3876 C   0  0  0  0  0  0  0  0  0  0  0  0
   -1.9579   -1.7750    0.9540 O   0  0  0  0  0  0  0  0  0  0  0  0
    2.2857    0.0180   -0.1964 C   0  0  0  0  0  0  0  0  0  0  0  0
    2.9929    0.1129    0.9182 C   0  0  0  0  0  0  0  0  0  0  0  0
    2.9054   -0.3985   -1.4965 C   0  0  0  0  0  0  0  0  0  0  0  0
   -1.6210    0.4065   -2.0257 H   0  0  0  0  0  0  0  0  0  0  0  0
   -3.1005   -0.4438   -1.5673 H   0  0  0  0  0  0  0  0  0  0  0  0
   -3.0685    1.3208   -1.5863 H   0  0  0  0  0  0  0  0  0  0  0  0
   -1.1241    2.3238   -0.4401 H   0  0  0  0  0  0  0  0  0  0  0  0
   -1.5880    2.2258    1.2546 H   0  0  0  0  0  0  0  0  0  0  0  0
    0.9036    2.1386    0.8458 H   0  0  0  0  0  0  0  0  0  0  0  0
    0.2737    0.7661    1.7681 H   0  0  0  0  0  0  0  0  0  0  0  0
   -0.0291   -1.5703   -1.0678 H   0  0  0  0  0  0  0  0  0  0  0  0
    0.5536   -1.7035    0.5811 H   0  0  0  0  0  0  0  0  0  0  0  0
    4.0479   -0.1032    0.9330 H   0  0  0  0  0  0  0  0  0  0  0  0
    2.5612    0.4073    1.8581 H   0  0  0  0  0  0  0  0  0  0  0  0
    2.3928   -1.2716   -1.8969 H   0  0  0  0  0  0  0  0  0  0  0  0
    2.8182    0.4040   -2.2276 H   0  0  0  0  0  0  0  0  0  0  0  0
    3.9566   -0.6394   -1.3679 H   0  0  0  0  0  0  0  0  0  0  0  0
  1  2  1  0  0  0  0
  2  3  1  0  0  0  0
  2  4  1  0  0  0  0
  4  5  1  0  0  0  0
  5  6  1  0  0  0  0
  6  7  1  0  0  0  0
  6  8  1  0  0  0  0
  2  9  1  0  0  0  0
  8  9  1  0  0  0  0
  9 10  2  0  0  0  0
  6 11  1  0  0  0  0
 11 12  2  0  0  0  0
 11 13  1  0  0  0  0
  1 14  1  0  0  0  0
  1 15  1  0  0  0  0
  1 16  1  0  0  0  0
  4 17  1  0  0  0  0
  4 18  1  0  0  0  0
  5 19  1  0  0  0  0
  5 20  1  0  0  0  0
  8 21  1  0  0  0  0
  8 22  1  0  0  0  0
 12 23  1  0  0  0  0
 12 24  1  0  0  0  0
 13 25  1  0  0  0  0
 13 26  1  0  0  0  0
 13 27  1  0  0  0  0
M  END
