 xtb: 6.7.1 (edcfbbe)
          04052508543D

 21 21  0     0  0            999 V2000
   -2.4362    1.0541   -0.4481 C   0  0  0  0  0  0  0  0  0  0  0  0
   -1.7021   -0.2811   -0.2923 C   0  0  0  0  0  0  0  0  0  0  0  0
   -2.3140   -1.0512    0.8820 C   0  0  0  0  0  0  0  0  0  0  0  0
   -0.2017   -0.1041   -0.1481 C   0  0  0  0  0  0  0  0  0  0  0  0
    0.5734   -1.0412    0.5292 C   0  0  0  0  0  0  0  0  0  0  0  0
    1.9444   -0.8931    0.6458 C   0  0  0  0  0  0  0  0  0  0  0  0
    2.5809    0.1981    0.0821 C   0  0  0  0  0  0  0  0  0  0  0  0
    1.8278    1.1331   -0.6048 C   0  0  0  0  0  0  0  0  0  0  0  0
    0.4569    0.9814   -0.7188 C   0  0  0  0  0  0  0  0  0  0  0  0
   -2.1970    1.5362   -1.3916 H   0  0  0  0  0  0  0  0  0  0  0  0
   -2.1776    1.7263    0.3669 H   0  0  0  0  0  0  0  0  0  0  0  0
   -3.5106    0.8868   -0.4284 H   0  0  0  0  0  0  0  0  0  0  0  0
   -1.8722   -0.8679   -1.2055 H   0  0  0  0  0  0  0  0  0  0  0  0
   -2.0401   -0.5841    1.8254 H   0  0  0  0  0  0  0  0  0  0  0  0
   -1.9894   -2.0877    0.8956 H   0  0  0  0  0  0  0  0  0  0  0  0
   -3.3983   -1.0480    0.7983 H   0  0  0  0  0  0  0  0  0  0  0  0
    0.1131   -1.9072    0.9768 H   0  0  0  0  0  0  0  0  0  0  0  0
    2.5173   -1.6366    1.1808 H   0  0  0  0  0  0  0  0  0  0  0  0
    3.6503    0.3164    0.1738 H   0  0  0  0  0  0  0  0  0  0  0  0
    2.3085    1.9883   -1.0571 H   0  0  0  0  0  0  0  0  0  0  0  0
   -0.0959    1.7278   -1.2657 H   0  0  0  0  0  0  0  0  0  0  0  0
  1  2  1  0  0  0  0
  2  3  1  0  0  0  0
  2  4  1  0  0  0  0
  4  5  4  0  0  0  0
  5  6  4  0  0  0  0
  6  7  4  0  0  0  0
  7  8  4  0  0  0  0
  4  9  4  0  0  0  0
  8  9  4  0  0  0  0
  1 10  1  0  0  0  0
  1 11  1  0  0  0  0
  1 12  1  0  0  0  0
  2 13  1  0  0  0  0
  3 14  1  0  0  0  0
  3 15  1  0  0  0  0
  3 16  1  0  0  0  0
  5 17  1  0  0  0  0
  6 18  1  0  0  0  0
  7 19  1  0  0  0  0
  8 20  1  0  0  0  0
  9 21  1  0  0  0  0
M  END
