 xtb: 6.7.1 (edcfbbe)
          04032521383D

 11 10  0     0  0            999 V2000
   -1.9615   -0.1693    0.5054 C   0  0  0  0  0  0  0  0  0  0  0  0
   -1.1833   -0.1671   -0.8049 C   0  0  0  0  0  0  0  0  0  0  0  0
    0.0994    0.6404   -0.7175 C   0  0  0  0  0  0  0  0  0  0  0  0
    1.2786   -0.1289    0.4070 Cl  0  0  0  0  0  0  0  0  0  0  0  0
   -1.3585   -0.5967    1.3029 H   0  0  0  0  0  0  0  0  0  0  0  0
   -2.2368    0.8441    0.7873 H   0  0  0  0  0  0  0  0  0  0  0  0
   -2.8676   -0.7599    0.4048 H   0  0  0  0  0  0  0  0  0  0  0  0
   -0.9472   -1.1917   -1.0959 H   0  0  0  0  0  0  0  0  0  0  0  0
   -1.7938    0.2776   -1.5931 H   0  0  0  0  0  0  0  0  0  0  0  0
   -0.0823    1.6388   -0.3234 H   0  0  0  0  0  0  0  0  0  0  0  0
    0.6038    0.6991   -1.6799 H   0  0  0  0  0  0  0  0  0  0  0  0
  1  2  1  0  0  0  0
  2  3  1  0  0  0  0
  3  4  1  0  0  0  0
  1  5  1  0  0  0  0
  1  6  1  0  0  0  0
  1  7  1  0  0  0  0
  2  8  1  0  0  0  0
  2  9  1  0  0  0  0
  3 10  1  0  0  0  0
  3 11  1  0  0  0  0
M  END
