 xtb: 6.7.1 (edcfbbe)
          04052503093D

 19 19  0     0  0            999 V2000
   -2.9755    0.6395   -0.7521 C   0  0  0  0  0  0  0  0  0  0  0  0
   -2.2678    0.3601    0.5758 C   0  0  0  0  0  0  0  0  0  0  0  0
   -0.8522   -0.0802    0.3334 C   0  0  0  0  0  0  0  0  0  0  0  0
   -0.5507   -1.4236    0.1394 C   0  0  0  0  0  0  0  0  0  0  0  0
    0.7478   -1.8170   -0.1252 C   0  0  0  0  0  0  0  0  0  0  0  0
    1.7646   -0.8816   -0.2029 C   0  0  0  0  0  0  0  0  0  0  0  0
    1.4737    0.4636   -0.0128 C   0  0  0  0  0  0  0  0  0  0  0  0
    0.1662    0.8557    0.2534 C   0  0  0  0  0  0  0  0  0  0  0  0
    2.4296    1.4328   -0.0755 O   0  0  0  0  0  0  0  0  0  0  0  0
   -2.4541    1.4216   -1.2990 H   0  0  0  0  0  0  0  0  0  0  0  0
   -3.9993    0.9595   -0.5763 H   0  0  0  0  0  0  0  0  0  0  0  0
   -2.9903   -0.2566   -1.3680 H   0  0  0  0  0  0  0  0  0  0  0  0
   -2.8089   -0.4196    1.1148 H   0  0  0  0  0  0  0  0  0  0  0  0
   -2.2731    1.2663    1.1837 H   0  0  0  0  0  0  0  0  0  0  0  0
   -1.3366   -2.1615    0.1991 H   0  0  0  0  0  0  0  0  0  0  0  0
    0.9757   -2.8621   -0.2723 H   0  0  0  0  0  0  0  0  0  0  0  0
    2.7778   -1.1952   -0.4086 H   0  0  0  0  0  0  0  0  0  0  0  0
   -0.0349    1.9064    0.3986 H   0  0  0  0  0  0  0  0  0  0  0  0
    3.2958    1.0422   -0.2647 H   0  0  0  0  0  0  0  0  0  0  0  0
  1  2  1  0  0  0  0
  2  3  1  0  0  0  0
  3  4  4  0  0  0  0
  4  5  4  0  0  0  0
  5  6  4  0  0  0  0
  6  7  4  0  0  0  0
  3  8  4  0  0  0  0
  7  8  4  0  0  0  0
  7  9  1  0  0  0  0
  1 10  1  0  0  0  0
  1 11  1  0  0  0  0
  1 12  1  0  0  0  0
  2 13  1  0  0  0  0
  2 14  1  0  0  0  0
  4 15  1  0  0  0  0
  5 16  1  0  0  0  0
  6 17  1  0  0  0  0
  8 18  1  0  0  0  0
  9 19  1  0  0  0  0
M  END
