 xtb: 6.7.1 (edcfbbe)
          04062518003D

 24 24  0     0  0            999 V2000
   -2.5348   -0.9669    0.3244 C   0  0  0  0  0  0  0  0  0  0  0  0
   -1.1112   -0.4708    0.6179 C   0  0  0  0  0  0  0  0  0  0  0  0
   -0.9726   -0.3927    1.7079 H   0  0  0  0  0  0  0  0  0  0  0  0
   -0.8267    0.9012   -0.0171 C   0  0  0  0  0  0  0  0  0  0  0  0
   -0.9991    0.8335   -1.0990 H   0  0  0  0  0  0  0  0  0  0  0  0
    0.6429    1.2802    0.2200 C   0  0  0  0  0  0  0  0  0  0  0  0
    0.7850    1.4135    1.3070 H   0  0  0  0  0  0  0  0  0  0  0  0
    1.5776    0.1670   -0.2717 C   0  0  0  0  0  0  0  0  0  0  0  0
    1.5137    0.0926   -1.3616 H   0  0  0  0  0  0  0  0  0  0  0  0
    1.1355   -1.1815    0.3346 C   0  0  0  0  0  0  0  0  0  0  0  0
    1.2966   -1.1436    1.4357 H   0  0  0  0  0  0  0  0  0  0  0  0
   -0.2269   -1.4428    0.0888 O   0  0  0  0  0  0  0  0  0  0  0  0
    1.8732   -2.1901   -0.2440 O   0  0  0  0  0  0  0  0  0  0  0  0
    2.9226    0.4348    0.0003 O   0  0  0  0  0  0  0  0  0  0  0  0
    0.9721    2.4679   -0.4517 O   0  0  0  0  0  0  0  0  0  0  0  0
   -1.6067    1.9234    0.5569 O   0  0  0  0  0  0  0  0  0  0  0  0
   -2.8354   -0.9605   -1.0462 O   0  0  0  0  0  0  0  0  0  0  0  0
   -3.2572   -0.3070    0.8063 H   0  0  0  0  0  0  0  0  0  0  0  0
   -2.6379   -1.9743    0.7436 H   0  0  0  0  0  0  0  0  0  0  0  0
    1.5066   -3.0529    0.0088 H   0  0  0  0  0  0  0  0  0  0  0  0
    3.0468    0.6066    0.9457 H   0  0  0  0  0  0  0  0  0  0  0  0
    0.3257    3.1462   -0.2000 H   0  0  0  0  0  0  0  0  0  0  0  0
   -2.5045    1.8881    0.1997 H   0  0  0  0  0  0  0  0  0  0  0  0
   -2.2407   -1.5783   -1.4948 H   0  0  0  0  0  0  0  0  0  0  0  0
  1  2  1  0  0  0  0
  2  3  1  0  0  0  0
  2  4  1  0  0  0  0
  4  5  1  0  0  0  0
  4  6  1  0  0  0  0
  6  7  1  0  0  0  0
  6  8  1  0  0  0  0
  8  9  1  0  0  0  0
  8 10  1  0  0  0  0
 10 11  1  0  0  0  0
  2 12  1  0  0  0  0
 10 12  1  0  0  0  0
 10 13  1  0  0  0  0
  8 14  1  0  0  0  0
  6 15  1  0  0  0  0
  4 16  1  0  0  0  0
  1 17  1  0  0  0  0
  1 18  1  0  0  0  0
  1 19  1  0  0  0  0
 13 20  1  0  0  0  0
 14 21  1  0  0  0  0
 15 22  1  0  0  0  0
 16 23  1  0  0  0  0
 17 24  1  0  0  0  0
M  END
