 xtb: 6.7.1 (edcfbbe)
          04032521403D

  5  4  0     0  0            999 V2000
   -0.8625    0.0001   -0.0000 C   0  0  0  0  0  0  0  0  0  0  0  0
   -1.3186   -0.5059    1.1304 F   0  0  0  0  0  0  0  0  0  0  0  0
   -1.3197    1.2316   -0.1271 F   0  0  0  0  0  0  0  0  0  0  0  0
   -1.3192   -0.7262   -1.0030 F   0  0  0  0  0  0  0  0  0  0  0  0
    1.0706    0.0001   -0.0001 Br  0  0  0  0  0  0  0  0  0  0  0  0
  1  2  1  0  0  0  0
  1  3  1  0  0  0  0
  1  4  1  0  0  0  0
  1  5  1  0  0  0  0
M  END
