 xtb: 6.7.1 (edcfbbe)
          04032521083D

 18 18  0     0  0            999 V2000
   -2.1655   -0.0744   -0.2363 C   0  0  0  0  0  0  0  0  0  0  0  0
   -0.7908    0.0103    0.4144 C   0  0  0  0  0  0  0  0  0  0  0  0
    0.0931   -1.2226    0.1231 C   0  0  0  0  0  0  0  0  0  0  0  0
    1.4636   -0.6832   -0.3162 C   0  0  0  0  0  0  0  0  0  0  0  0
    1.4738    0.7739    0.1429 C   0  0  0  0  0  0  0  0  0  0  0  0
    0.0298    1.2075   -0.0818 C   0  0  0  0  0  0  0  0  0  0  0  0
   -2.7161   -0.9315    0.1447 H   0  0  0  0  0  0  0  0  0  0  0  0
   -2.7401    0.8249   -0.0259 H   0  0  0  0  0  0  0  0  0  0  0  0
   -2.0696   -0.1766   -1.3152 H   0  0  0  0  0  0  0  0  0  0  0  0
   -0.9252    0.1056    1.4966 H   0  0  0  0  0  0  0  0  0  0  0  0
    0.1880   -1.8416    1.0149 H   0  0  0  0  0  0  0  0  0  0  0  0
   -0.3497   -1.8387   -0.6590 H   0  0  0  0  0  0  0  0  0  0  0  0
    2.2869   -1.2567    0.1072 H   0  0  0  0  0  0  0  0  0  0  0  0
    1.5502   -0.7210   -1.4029 H   0  0  0  0  0  0  0  0  0  0  0  0
    1.7176    0.8319    1.2051 H   0  0  0  0  0  0  0  0  0  0  0  0
    2.1892    1.3812   -0.4098 H   0  0  0  0  0  0  0  0  0  0  0  0
   -0.2233    2.1276    0.4429 H   0  0  0  0  0  0  0  0  0  0  0  0
   -0.1471    1.3588   -1.1483 H   0  0  0  0  0  0  0  0  0  0  0  0
  1  2  1  0  0  0  0
  2  3  1  0  0  0  0
  3  4  1  0  0  0  0
  4  5  1  0  0  0  0
  2  6  1  0  0  0  0
  5  6  1  0  0  0  0
  1  7  1  0  0  0  0
  1  8  1  0  0  0  0
  1  9  1  0  0  0  0
  2 10  1  0  0  0  0
  3 11  1  0  0  0  0
  3 12  1  0  0  0  0
  4 13  1  0  0  0  0
  4 14  1  0  0  0  0
  5 15  1  0  0  0  0
  5 16  1  0  0  0  0
  6 17  1  0  0  0  0
  6 18  1  0  0  0  0
M  END
