 xtb: 6.7.1 (edcfbbe)
          04062518003D

 24 24  0     0  0            999 V2000
   -1.7982   -1.0176   -0.7096 C   0  0  0  0  0  0  0  0  0  0  0  0
   -1.0380   -0.4648    0.5059 C   0  0  0  0  0  0  0  0  0  0  0  0
   -1.7126   -0.5410    1.3674 H   0  0  0  0  0  0  0  0  0  0  0  0
   -0.6936    1.0235    0.3356 C   0  0  0  0  0  0  0  0  0  0  0  0
   -1.5270    1.4799   -0.2128 H   0  0  0  0  0  0  0  0  0  0  0  0
    0.6070    1.2369   -0.4691 C   0  0  0  0  0  0  0  0  0  0  0  0
    0.9061    2.2861   -0.3423 H   0  0  0  0  0  0  0  0  0  0  0  0
    1.7314    0.3519    0.1103 C   0  0  0  0  0  0  0  0  0  0  0  0
    2.6199    0.4063   -0.5292 H   0  0  0  0  0  0  0  0  0  0  0  0
    1.2617   -1.1173    0.1352 C   0  0  0  0  0  0  0  0  0  0  0  0
    1.9853   -1.7272    0.6901 H   0  0  0  0  0  0  0  0  0  0  0  0
    0.0736   -1.2659    0.8786 O   0  0  0  0  0  0  0  0  0  0  0  0
    1.1866   -1.6558   -1.1462 O   0  0  0  0  0  0  0  0  0  0  0  0
    2.1381    0.7957    1.3760 O   0  0  0  0  0  0  0  0  0  0  0  0
    0.3643    0.9412   -1.8285 O   0  0  0  0  0  0  0  0  0  0  0  0
   -0.5658    1.5828    1.6254 O   0  0  0  0  0  0  0  0  0  0  0  0
   -3.1214   -0.5329   -0.6306 O   0  0  0  0  0  0  0  0  0  0  0  0
   -1.7681   -2.1123   -0.6526 H   0  0  0  0  0  0  0  0  0  0  0  0
   -1.3306   -0.6870   -1.6426 H   0  0  0  0  0  0  0  0  0  0  0  0
    0.7805   -1.0007   -1.7446 H   0  0  0  0  0  0  0  0  0  0  0  0
    1.3629    0.8117    1.9644 H   0  0  0  0  0  0  0  0  0  0  0  0
    0.9786    1.4354   -2.3901 H   0  0  0  0  0  0  0  0  0  0  0  0
   -0.6906    2.5415    1.5898 H   0  0  0  0  0  0  0  0  0  0  0  0
   -3.6373   -0.8997   -1.3623 H   0  0  0  0  0  0  0  0  0  0  0  0
  1  2  1  0  0  0  0
  2  3  1  0  0  0  0
  2  4  1  0  0  0  0
  4  5  1  0  0  0  0
  4  6  1  0  0  0  0
  6  7  1  0  0  0  0
  6  8  1  0  0  0  0
  8  9  1  0  0  0  0
  8 10  1  0  0  0  0
 10 11  1  0  0  0  0
  2 12  1  0  0  0  0
 10 12  1  0  0  0  0
 10 13  1  0  0  0  0
  8 14  1  0  0  0  0
  6 15  1  0  0  0  0
  4 16  1  0  0  0  0
  1 17  1  0  0  0  0
  1 18  1  0  0  0  0
  1 19  1  0  0  0  0
 13 20  1  0  0  0  0
 14 21  1  0  0  0  0
 15 22  1  0  0  0  0
 16 23  1  0  0  0  0
 17 24  1  0  0  0  0
M  END
