 xtb: 6.7.1 (edcfbbe)
          04052516073D

 27 27  0     0  0            999 V2000
   -2.7617    0.8650    0.8653 C   0  0  0  0  0  0  0  0  0  0  0  0
   -1.3488    0.6217    0.3402 C   0  0  0  0  0  0  0  0  0  0  0  0
   -0.6308    1.0311    1.0623 H   0  0  0  0  0  0  0  0  0  0  0  0
   -1.0979    1.2828   -1.0143 C   0  0  0  0  0  0  0  0  0  0  0  0
    0.3826    1.2177   -1.3930 C   0  0  0  0  0  0  0  0  0  0  0  0
    1.0446   -0.1291   -1.0099 C   0  0  0  0  0  0  0  0  0  0  0  0
    1.6673   -0.4506   -1.8524 H   0  0  0  0  0  0  0  0  0  0  0  0
   -0.0253   -1.2063   -0.8123 C   0  0  0  0  0  0  0  0  0  0  0  0
   -1.0447   -0.8554    0.2361 C   0  0  0  0  0  0  0  0  0  0  0  0
   -1.5975   -1.6989    0.9181 O   0  0  0  0  0  0  0  0  0  0  0  0
    1.9898    0.0149    0.1738 C   0  0  0  0  0  0  0  0  0  0  0  0
    2.9640    0.9136    0.1441 C   0  0  0  0  0  0  0  0  0  0  0  0
    1.8538   -0.9202    1.3368 C   0  0  0  0  0  0  0  0  0  0  0  0
   -2.9177    1.9213    1.0646 H   0  0  0  0  0  0  0  0  0  0  0  0
   -3.4960    0.5329    0.1345 H   0  0  0  0  0  0  0  0  0  0  0  0
   -2.9199    0.3032    1.7828 H   0  0  0  0  0  0  0  0  0  0  0  0
   -1.7120    0.7878   -1.7691 H   0  0  0  0  0  0  0  0  0  0  0  0
   -1.4132    2.3259   -0.9715 H   0  0  0  0  0  0  0  0  0  0  0  0
    0.4785    1.3864   -2.4658 H   0  0  0  0  0  0  0  0  0  0  0  0
    0.9095    2.0255   -0.8858 H   0  0  0  0  0  0  0  0  0  0  0  0
   -0.5828   -1.3170   -1.7471 H   0  0  0  0  0  0  0  0  0  0  0  0
    0.4106   -2.1795   -0.5857 H   0  0  0  0  0  0  0  0  0  0  0  0
    3.6570    1.0239    0.9602 H   0  0  0  0  0  0  0  0  0  0  0  0
    3.1179    1.5695   -0.6958 H   0  0  0  0  0  0  0  0  0  0  0  0
    2.1015   -1.9369    1.0334 H   0  0  0  0  0  0  0  0  0  0  0  0
    2.5326   -0.6295    2.1341 H   0  0  0  0  0  0  0  0  0  0  0  0
    0.8402   -0.9339    1.7322 H   0  0  0  0  0  0  0  0  0  0  0  0
  1  2  1  0  0  0  0
  2  3  1  0  0  0  0
  2  4  1  0  0  0  0
  4  5  1  0  0  0  0
  5  6  1  0  0  0  0
  6  7  1  0  0  0  0
  6  8  1  0  0  0  0
  2  9  1  0  0  0  0
  8  9  1  0  0  0  0
  9 10  2  0  0  0  0
  6 11  1  0  0  0  0
 11 12  2  0  0  0  0
 11 13  1  0  0  0  0
  1 14  1  0  0  0  0
  1 15  1  0  0  0  0
  1 16  1  0  0  0  0
  4 17  1  0  0  0  0
  4 18  1  0  0  0  0
  5 19  1  0  0  0  0
  5 20  1  0  0  0  0
  8 21  1  0  0  0  0
  8 22  1  0  0  0  0
 12 23  1  0  0  0  0
 12 24  1  0  0  0  0
 13 25  1  0  0  0  0
 13 26  1  0  0  0  0
 13 27  1  0  0  0  0
M  END
