 xtb: 6.7.1 (edcfbbe)
          04062518003D

 24 24  0     0  0            999 V2000
   -2.5219   -0.9864    0.3530 C   0  0  0  0  0  0  0  0  0  0  0  0
   -1.0741   -0.5149    0.5854 C   0  0  0  0  0  0  0  0  0  0  0  0
   -0.9076   -0.4393    1.6720 H   0  0  0  0  0  0  0  0  0  0  0  0
   -0.7935    0.8550   -0.0460 C   0  0  0  0  0  0  0  0  0  0  0  0
   -0.9149    0.7699   -1.1374 H   0  0  0  0  0  0  0  0  0  0  0  0
    0.6623    1.2472    0.2278 C   0  0  0  0  0  0  0  0  0  0  0  0
    0.8134    1.3542    1.3143 H   0  0  0  0  0  0  0  0  0  0  0  0
    1.5922    0.1435   -0.2824 C   0  0  0  0  0  0  0  0  0  0  0  0
    1.5034    0.0726   -1.3768 H   0  0  0  0  0  0  0  0  0  0  0  0
    1.1619   -1.2091    0.3111 C   0  0  0  0  0  0  0  0  0  0  0  0
    1.3208   -1.1748    1.4120 H   0  0  0  0  0  0  0  0  0  0  0  0
   -0.1924   -1.4834    0.0497 O   0  0  0  0  0  0  0  0  0  0  0  0
    1.9326   -2.1967   -0.2710 O   0  0  0  0  0  0  0  0  0  0  0  0
    2.9039    0.4746    0.0938 O   0  0  0  0  0  0  0  0  0  0  0  0
    0.9026    2.4747   -0.4139 O   0  0  0  0  0  0  0  0  0  0  0  0
   -1.6959    1.7900    0.4836 O   0  0  0  0  0  0  0  0  0  0  0  0
   -3.0171   -0.7273   -0.9327 O   0  0  0  0  0  0  0  0  0  0  0  0
   -3.1550   -0.5202    1.1140 H   0  0  0  0  0  0  0  0  0  0  0  0
   -2.5401   -2.0712    0.4735 H   0  0  0  0  0  0  0  0  0  0  0  0
    1.5126   -3.0598   -0.1331 H   0  0  0  0  0  0  0  0  0  0  0  0
    3.5012   -0.2352   -0.1848 H   0  0  0  0  0  0  0  0  0  0  0  0
    1.8457    2.6824   -0.3408 H   0  0  0  0  0  0  0  0  0  0  0  0
   -1.3968    2.6756    0.2248 H   0  0  0  0  0  0  0  0  0  0  0  0
   -3.2225    0.2156   -1.0049 H   0  0  0  0  0  0  0  0  0  0  0  0
  1  2  1  0  0  0  0
  2  3  1  0  0  0  0
  2  4  1  0  0  0  0
  4  5  1  0  0  0  0
  4  6  1  0  0  0  0
  6  7  1  0  0  0  0
  6  8  1  0  0  0  0
  8  9  1  0  0  0  0
  8 10  1  0  0  0  0
 10 11  1  0  0  0  0
  2 12  1  0  0  0  0
 10 12  1  0  0  0  0
 10 13  1  0  0  0  0
  8 14  1  0  0  0  0
  6 15  1  0  0  0  0
  4 16  1  0  0  0  0
  1 17  1  0  0  0  0
  1 18  1  0  0  0  0
  1 19  1  0  0  0  0
 13 20  1  0  0  0  0
 14 21  1  0  0  0  0
 15 22  1  0  0  0  0
 16 23  1  0  0  0  0
 17 24  1  0  0  0  0
M  END
