 xtb: 6.7.1 (edcfbbe)
          04032521503D

 24 24  0     0  0            999 V2000
   -2.7239    0.2534   -0.2968 C   0  0  0  0  0  0  0  0  0  0  0  0
   -1.4554   -0.0969    0.4783 C   0  0  0  0  0  0  0  0  0  0  0  0
   -0.7419   -1.2903   -0.1746 C   0  0  0  0  0  0  0  0  0  0  0  0
    0.7420   -1.2901    0.1753 C   0  0  0  0  0  0  0  0  0  0  0  0
    1.4551   -0.0970   -0.4784 C   0  0  0  0  0  0  0  0  0  0  0  0
    0.5043    1.1090   -0.5713 C   0  0  0  0  0  0  0  0  0  0  0  0
   -0.5045    1.1088    0.5720 C   0  0  0  0  0  0  0  0  0  0  0  0
    2.7243    0.2532    0.2955 C   0  0  0  0  0  0  0  0  0  0  0  0
   -3.3610   -0.6226   -0.3965 H   0  0  0  0  0  0  0  0  0  0  0  0
   -3.2860    1.0302    0.2169 H   0  0  0  0  0  0  0  0  0  0  0  0
   -2.4749    0.6113   -1.2935 H   0  0  0  0  0  0  0  0  0  0  0  0
   -1.7485   -0.3808    1.4953 H   0  0  0  0  0  0  0  0  0  0  0  0
   -1.2070   -2.2209    0.1557 H   0  0  0  0  0  0  0  0  0  0  0  0
   -0.8500   -1.2374   -1.2599 H   0  0  0  0  0  0  0  0  0  0  0  0
    0.8502   -1.2366    1.2606 H   0  0  0  0  0  0  0  0  0  0  0  0
    1.2072   -2.2208   -0.1545 H   0  0  0  0  0  0  0  0  0  0  0  0
    1.7471   -0.3811   -1.4956 H   0  0  0  0  0  0  0  0  0  0  0  0
    1.0848    2.0331   -0.5535 H   0  0  0  0  0  0  0  0  0  0  0  0
   -0.0363    1.0838   -1.5189 H   0  0  0  0  0  0  0  0  0  0  0  0
    0.0361    1.0830    1.5196 H   0  0  0  0  0  0  0  0  0  0  0  0
   -1.0848    2.0330    0.5546 H   0  0  0  0  0  0  0  0  0  0  0  0
    3.2861    1.0298   -0.2189 H   0  0  0  0  0  0  0  0  0  0  0  0
    3.3614   -0.6229    0.3948 H   0  0  0  0  0  0  0  0  0  0  0  0
    2.4763    0.6114    1.2923 H   0  0  0  0  0  0  0  0  0  0  0  0
  1  2  1  0  0  0  0
  2  3  1  0  0  0  0
  3  4  1  0  0  0  0
  4  5  1  0  0  0  0
  5  6  1  0  0  0  0
  2  7  1  0  0  0  0
  6  7  1  0  0  0  0
  5  8  1  0  0  0  0
  1  9  1  0  0  0  0
  1 10  1  0  0  0  0
  1 11  1  0  0  0  0
  2 12  1  0  0  0  0
  3 13  1  0  0  0  0
  3 14  1  0  0  0  0
  4 15  1  0  0  0  0
  4 16  1  0  0  0  0
  5 17  1  0  0  0  0
  6 18  1  0  0  0  0
  6 19  1  0  0  0  0
  7 20  1  0  0  0  0
  7 21  1  0  0  0  0
  8 22  1  0  0  0  0
  8 23  1  0  0  0  0
  8 24  1  0  0  0  0
M  END
