 xtb: 6.7.1 (edcfbbe)
          04042523513D

 17 17  0     0  0            999 V2000
    2.8535    0.7155   -0.2516 C   0  0  0  0  0  0  0  0  0  0  0  0
    1.9964   -0.4659    0.1936 C   0  0  0  0  0  0  0  0  0  0  0  0
    0.5158   -0.2337    0.0944 C   0  0  0  0  0  0  0  0  0  0  0  0
   -0.0686    1.0169    0.2664 C   0  0  0  0  0  0  0  0  0  0  0  0
   -1.4455    1.1361    0.1759 C   0  0  0  0  0  0  0  0  0  0  0  0
   -2.2603    0.1202   -0.0653 N   0  0  0  0  0  0  0  0  0  0  0  0
   -1.7068   -1.0733   -0.2261 C   0  0  0  0  0  0  0  0  0  0  0  0
   -0.3438   -1.3005   -0.1582 C   0  0  0  0  0  0  0  0  0  0  0  0
    2.5645    1.0418   -1.2480 H   0  0  0  0  0  0  0  0  0  0  0  0
    3.8992    0.4205   -0.2752 H   0  0  0  0  0  0  0  0  0  0  0  0
    2.7571    1.5546    0.4318 H   0  0  0  0  0  0  0  0  0  0  0  0
    2.2316   -0.7077    1.2346 H   0  0  0  0  0  0  0  0  0  0  0  0
    2.2488   -1.3432   -0.4059 H   0  0  0  0  0  0  0  0  0  0  0  0
    0.5287    1.8907    0.4672 H   0  0  0  0  0  0  0  0  0  0  0  0
   -1.9285    2.0960    0.3024 H   0  0  0  0  0  0  0  0  0  0  0  0
   -2.3981   -1.8824   -0.4214 H   0  0  0  0  0  0  0  0  0  0  0  0
    0.0463   -2.2966   -0.3010 H   0  0  0  0  0  0  0  0  0  0  0  0
  1  2  1  0  0  0  0
  2  3  1  0  0  0  0
  3  4  4  0  0  0  0
  4  5  4  0  0  0  0
  5  6  4  0  0  0  0
  6  7  4  0  0  0  0
  3  8  4  0  0  0  0
  7  8  4  0  0  0  0
  1  9  1  0  0  0  0
  1 10  1  0  0  0  0
  1 11  1  0  0  0  0
  2 12  1  0  0  0  0
  2 13  1  0  0  0  0
  4 14  1  0  0  0  0
  5 15  1  0  0  0  0
  7 16  1  0  0  0  0
  8 17  1  0  0  0  0
M  END
