 xtb: 6.7.1 (edcfbbe)
          04062518003D

 24 24  0     0  0            999 V2000
   -2.2299   -1.1915    0.0531 C   0  0  0  0  0  0  0  0  0  0  0  0
   -0.8877   -0.5521    0.4484 C   0  0  0  0  0  0  0  0  0  0  0  0
   -0.9786   -0.2123    1.4914 H   0  0  0  0  0  0  0  0  0  0  0  0
   -0.5624    0.6611   -0.4265 C   0  0  0  0  0  0  0  0  0  0  0  0
   -0.4948    0.3293   -1.4744 H   0  0  0  0  0  0  0  0  0  0  0  0
    0.7914    1.2754   -0.0193 C   0  0  0  0  0  0  0  0  0  0  0  0
    0.6331    1.9409    0.8375 H   0  0  0  0  0  0  0  0  0  0  0  0
    1.8068    0.1868    0.4075 C   0  0  0  0  0  0  0  0  0  0  0  0
    2.7836    0.4485   -0.0119 H   0  0  0  0  0  0  0  0  0  0  0  0
    1.3743   -1.1769   -0.1469 C   0  0  0  0  0  0  0  0  0  0  0  0
    2.0592   -1.9548    0.2200 H   0  0  0  0  0  0  0  0  0  0  0  0
    0.1193   -1.5611    0.3662 O   0  0  0  0  0  0  0  0  0  0  0  0
    1.3895   -1.1063   -1.5378 O   0  0  0  0  0  0  0  0  0  0  0  0
    1.9928    0.1247    1.7968 O   0  0  0  0  0  0  0  0  0  0  0  0
    1.2915    2.0947   -1.0464 O   0  0  0  0  0  0  0  0  0  0  0  0
   -1.6121    1.5891   -0.2855 O   0  0  0  0  0  0  0  0  0  0  0  0
   -3.3294   -0.4876    0.5628 O   0  0  0  0  0  0  0  0  0  0  0  0
   -2.2711   -2.1943    0.4842 H   0  0  0  0  0  0  0  0  0  0  0  0
   -2.2897   -1.2736   -1.0405 H   0  0  0  0  0  0  0  0  0  0  0  0
    1.2698   -1.9883   -1.9220 H   0  0  0  0  0  0  0  0  0  0  0  0
    1.2620   -0.3584    2.2091 H   0  0  0  0  0  0  0  0  0  0  0  0
    1.5190    1.5441   -1.8109 H   0  0  0  0  0  0  0  0  0  0  0  0
   -1.3749    2.4032   -0.7539 H   0  0  0  0  0  0  0  0  0  0  0  0
   -3.2480    0.4410    0.2880 H   0  0  0  0  0  0  0  0  0  0  0  0
  1  2  1  0  0  0  0
  2  3  1  0  0  0  0
  2  4  1  0  0  0  0
  4  5  1  0  0  0  0
  4  6  1  0  0  0  0
  6  7  1  0  0  0  0
  6  8  1  0  0  0  0
  8  9  1  0  0  0  0
  8 10  1  0  0  0  0
 10 11  1  0  0  0  0
  2 12  1  0  0  0  0
 10 12  1  0  0  0  0
 10 13  1  0  0  0  0
  8 14  1  0  0  0  0
  6 15  1  0  0  0  0
  4 16  1  0  0  0  0
  1 17  1  0  0  0  0
  1 18  1  0  0  0  0
  1 19  1  0  0  0  0
 13 20  1  0  0  0  0
 14 21  1  0  0  0  0
 15 22  1  0  0  0  0
 16 23  1  0  0  0  0
 17 24  1  0  0  0  0
M  END
