 xtb: 6.7.1 (edcfbbe)
          04062518003D

 24 24  0     0  0            999 V2000
   -2.0958   -1.3584   -0.0930 C   0  0  0  0  0  0  0  0  0  0  0  0
   -0.9939   -0.5249    0.5904 C   0  0  0  0  0  0  0  0  0  0  0  0
   -1.3791   -0.1841    1.5612 H   0  0  0  0  0  0  0  0  0  0  0  0
   -0.6218    0.6951   -0.2617 C   0  0  0  0  0  0  0  0  0  0  0  0
   -0.5357    0.4077   -1.3163 H   0  0  0  0  0  0  0  0  0  0  0  0
    0.7348    1.2503    0.1904 C   0  0  0  0  0  0  0  0  0  0  0  0
    0.7070    1.4715    1.2705 H   0  0  0  0  0  0  0  0  0  0  0  0
    1.8273    0.1981   -0.0374 C   0  0  0  0  0  0  0  0  0  0  0  0
    2.2157    0.3424   -1.0528 H   0  0  0  0  0  0  0  0  0  0  0  0
    1.2387   -1.2333    0.0371 C   0  0  0  0  0  0  0  0  0  0  0  0
    1.9840   -1.8875    0.5114 H   0  0  0  0  0  0  0  0  0  0  0  0
    0.1369   -1.3332    0.9027 O   0  0  0  0  0  0  0  0  0  0  0  0
    0.9392   -1.6486   -1.2589 O   0  0  0  0  0  0  0  0  0  0  0  0
    2.8248    0.3899    0.9323 O   0  0  0  0  0  0  0  0  0  0  0  0
    1.0681    2.4104   -0.5294 O   0  0  0  0  0  0  0  0  0  0  0  0
   -1.6183    1.6868   -0.2220 O   0  0  0  0  0  0  0  0  0  0  0  0
   -3.3346   -0.6962   -0.0901 O   0  0  0  0  0  0  0  0  0  0  0  0
   -2.2399   -2.2837    0.4692 H   0  0  0  0  0  0  0  0  0  0  0  0
   -1.7846   -1.6045   -1.1166 H   0  0  0  0  0  0  0  0  0  0  0  0
    0.7751   -2.6041   -1.2767 H   0  0  0  0  0  0  0  0  0  0  0  0
    3.6714    0.0415    0.6200 H   0  0  0  0  0  0  0  0  0  0  0  0
    0.2537    2.9161   -0.6882 H   0  0  0  0  0  0  0  0  0  0  0  0
   -1.7558    1.9767    0.6930 H   0  0  0  0  0  0  0  0  0  0  0  0
   -3.2344    0.1614   -0.5339 H   0  0  0  0  0  0  0  0  0  0  0  0
  1  2  1  0  0  0  0
  2  3  1  0  0  0  0
  2  4  1  0  0  0  0
  4  5  1  0  0  0  0
  4  6  1  0  0  0  0
  6  7  1  0  0  0  0
  6  8  1  0  0  0  0
  8  9  1  0  0  0  0
  8 10  1  0  0  0  0
 10 11  1  0  0  0  0
  2 12  1  0  0  0  0
 10 12  1  0  0  0  0
 10 13  1  0  0  0  0
  8 14  1  0  0  0  0
  6 15  1  0  0  0  0
  4 16  1  0  0  0  0
  1 17  1  0  0  0  0
  1 18  1  0  0  0  0
  1 19  1  0  0  0  0
 13 20  1  0  0  0  0
 14 21  1  0  0  0  0
 15 22  1  0  0  0  0
 16 23  1  0  0  0  0
 17 24  1  0  0  0  0
M  END
