 xtb: 6.7.1 (edcfbbe)
          04062518003D

 24 24  0     0  0            999 V2000
   -2.3840   -1.1803   -0.2791 C   0  0  0  0  0  0  0  0  0  0  0  0
   -1.0653   -0.6185    0.2626 C   0  0  0  0  0  0  0  0  0  0  0  0
   -1.1069   -0.5745    1.3632 H   0  0  0  0  0  0  0  0  0  0  0  0
   -0.7791    0.7951   -0.2656 C   0  0  0  0  0  0  0  0  0  0  0  0
   -0.8025    0.7739   -1.3678 H   0  0  0  0  0  0  0  0  0  0  0  0
    0.6207    1.2322    0.1838 C   0  0  0  0  0  0  0  0  0  0  0  0
    0.6093    1.3394    1.2812 H   0  0  0  0  0  0  0  0  0  0  0  0
    1.6797    0.1894   -0.1886 C   0  0  0  0  0  0  0  0  0  0  0  0
    1.7892    0.1585   -1.2822 H   0  0  0  0  0  0  0  0  0  0  0  0
    1.2433   -1.2045    0.2824 C   0  0  0  0  0  0  0  0  0  0  0  0
    1.2758   -1.2145    1.3919 H   0  0  0  0  0  0  0  0  0  0  0  0
   -0.0617   -1.5221   -0.1529 O   0  0  0  0  0  0  0  0  0  0  0  0
    2.0971   -2.1383   -0.2588 O   0  0  0  0  0  0  0  0  0  0  0  0
    2.9052    0.4794    0.4280 O   0  0  0  0  0  0  0  0  0  0  0  0
    0.9986    2.4490   -0.4120 O   0  0  0  0  0  0  0  0  0  0  0  0
   -1.6829    1.7524    0.2276 O   0  0  0  0  0  0  0  0  0  0  0  0
   -3.4486   -0.3749    0.1702 O   0  0  0  0  0  0  0  0  0  0  0  0
   -2.4819   -2.2107    0.0792 H   0  0  0  0  0  0  0  0  0  0  0  0
   -2.3276   -1.1914   -1.3743 H   0  0  0  0  0  0  0  0  0  0  0  0
    1.7784   -3.0321   -0.0534 H   0  0  0  0  0  0  0  0  0  0  0  0
    3.1783    1.3682    0.1512 H   0  0  0  0  0  0  0  0  0  0  0  0
    0.2911    3.0934   -0.2596 H   0  0  0  0  0  0  0  0  0  0  0  0
   -2.5780    1.3695    0.2198 H   0  0  0  0  0  0  0  0  0  0  0  0
   -4.2878   -0.7524   -0.1302 H   0  0  0  0  0  0  0  0  0  0  0  0
  1  2  1  0  0  0  0
  2  3  1  0  0  0  0
  2  4  1  0  0  0  0
  4  5  1  0  0  0  0
  4  6  1  0  0  0  0
  6  7  1  0  0  0  0
  6  8  1  0  0  0  0
  8  9  1  0  0  0  0
  8 10  1  0  0  0  0
 10 11  1  0  0  0  0
  2 12  1  0  0  0  0
 10 12  1  0  0  0  0
 10 13  1  0  0  0  0
  8 14  1  0  0  0  0
  6 15  1  0  0  0  0
  4 16  1  0  0  0  0
  1 17  1  0  0  0  0
  1 18  1  0  0  0  0
  1 19  1  0  0  0  0
 13 20  1  0  0  0  0
 14 21  1  0  0  0  0
 15 22  1  0  0  0  0
 16 23  1  0  0  0  0
 17 24  1  0  0  0  0
M  END
