 xtb: 6.7.1 (edcfbbe)
          04032520533D

 24 24  0     0  0            999 V2000
    1.6392   -0.5391   -1.0527 C   0  0  0  0  0  0  0  0  0  0  0  0
    0.9652   -0.4449    0.3166 C   0  0  0  0  0  0  0  0  0  0  0  0
    1.7617   -0.4996    1.0682 H   0  0  0  0  0  0  0  0  0  0  0  0
   -0.0009   -1.6286    0.5476 C   0  0  0  0  0  0  0  0  0  0  0  0
   -1.4760   -1.2336    0.4393 C   0  0  0  0  0  0  0  0  0  0  0  0
   -1.6840   -0.2623   -0.7159 C   0  0  0  0  0  0  0  0  0  0  0  0
   -0.9335    1.0525   -0.4617 C   0  0  0  0  0  0  0  0  0  0  0  0
    0.2226    0.8831    0.5332 C   0  0  0  0  0  0  0  0  0  0  0  0
   -0.1975    0.8407    1.5445 H   0  0  0  0  0  0  0  0  0  0  0  0
    1.1504    2.0955    0.4848 C   0  0  0  0  0  0  0  0  0  0  0  0
    0.9142   -0.4751   -1.8581 H   0  0  0  0  0  0  0  0  0  0  0  0
    2.3687    0.2564   -1.1788 H   0  0  0  0  0  0  0  0  0  0  0  0
    2.1635   -1.4889   -1.1394 H   0  0  0  0  0  0  0  0  0  0  0  0
    0.2109   -2.4047   -0.1899 H   0  0  0  0  0  0  0  0  0  0  0  0
    0.1740   -2.0634    1.5336 H   0  0  0  0  0  0  0  0  0  0  0  0
   -2.0789   -2.1309    0.2866 H   0  0  0  0  0  0  0  0  0  0  0  0
   -1.8140   -0.7679    1.3668 H   0  0  0  0  0  0  0  0  0  0  0  0
   -1.3251   -0.7340   -1.6325 H   0  0  0  0  0  0  0  0  0  0  0  0
   -2.7489   -0.0632   -0.8496 H   0  0  0  0  0  0  0  0  0  0  0  0
   -0.5475    1.4449   -1.4040 H   0  0  0  0  0  0  0  0  0  0  0  0
   -1.6212    1.8002   -0.0608 H   0  0  0  0  0  0  0  0  0  0  0  0
    1.9823    1.9681    1.1740 H   0  0  0  0  0  0  0  0  0  0  0  0
    0.6038    2.9922    0.7686 H   0  0  0  0  0  0  0  0  0  0  0  0
    1.5482    2.2473   -0.5152 H   0  0  0  0  0  0  0  0  0  0  0  0
  1  2  1  0  0  0  0
  2  3  1  0  0  0  0
  2  4  1  0  0  0  0
  4  5  1  0  0  0  0
  5  6  1  0  0  0  0
  6  7  1  0  0  0  0
  2  8  1  0  0  0  0
  7  8  1  0  0  0  0
  8  9  1  0  0  0  0
  8 10  1  0  0  0  0
  1 11  1  0  0  0  0
  1 12  1  0  0  0  0
  1 13  1  0  0  0  0
  4 14  1  0  0  0  0
  4 15  1  0  0  0  0
  5 16  1  0  0  0  0
  5 17  1  0  0  0  0
  6 18  1  0  0  0  0
  6 19  1  0  0  0  0
  7 20  1  0  0  0  0
  7 21  1  0  0  0  0
 10 22  1  0  0  0  0
 10 23  1  0  0  0  0
 10 24  1  0  0  0  0
M  END
