 xtb: 6.7.1 (edcfbbe)
          04032521233D

 14 14  0     0  0            999 V2000
    0.6673   -1.1347   -0.3682 C   0  0  0  0  0  0  0  0  0  0  0  0
   -0.6666   -1.1351    0.3682 C   0  0  0  0  0  0  0  0  0  0  0  0
   -1.4549   -0.0005    0.0278 O   0  0  0  0  0  0  0  0  0  0  0  0
   -0.6809    1.1347   -0.3424 C   0  0  0  0  0  0  0  0  0  0  0  0
    0.6803    1.1351    0.3424 C   0  0  0  0  0  0  0  0  0  0  0  0
    1.4549    0.0005   -0.0279 O   0  0  0  0  0  0  0  0  0  0  0  0
    0.4900   -1.1455   -1.4524 H   0  0  0  0  0  0  0  0  0  0  0  0
    1.2572   -2.0108   -0.0943 H   0  0  0  0  0  0  0  0  0  0  0  0
   -1.2560   -2.0116    0.0944 H   0  0  0  0  0  0  0  0  0  0  0  0
   -0.4893   -1.1458    1.4524 H   0  0  0  0  0  0  0  0  0  0  0  0
   -0.5451    1.1455   -1.4325 H   0  0  0  0  0  0  0  0  0  0  0  0
   -1.2598    2.0109   -0.0462 H   0  0  0  0  0  0  0  0  0  0  0  0
    1.2587    2.0116    0.0462 H   0  0  0  0  0  0  0  0  0  0  0  0
    0.5444    1.1458    1.4325 H   0  0  0  0  0  0  0  0  0  0  0  0
  1  2  1  0  0  0  0
  2  3  1  0  0  0  0
  3  4  1  0  0  0  0
  4  5  1  0  0  0  0
  1  6  1  0  0  0  0
  5  6  1  0  0  0  0
  1  7  1  0  0  0  0
  1  8  1  0  0  0  0
  2  9  1  0  0  0  0
  2 10  1  0  0  0  0
  4 11  1  0  0  0  0
  4 12  1  0  0  0  0
  5 13  1  0  0  0  0
  5 14  1  0  0  0  0
M  END
