 xtb: 6.7.1 (edcfbbe)
          04062518003D

 24 24  0     0  0            999 V2000
   -2.0809   -1.1711   -0.2652 C   0  0  0  0  0  0  0  0  0  0  0  0
   -1.2688   -0.3488    0.7457 C   0  0  0  0  0  0  0  0  0  0  0  0
   -1.8998   -0.2280    1.6328 H   0  0  0  0  0  0  0  0  0  0  0  0
   -0.9278    1.0642    0.2019 C   0  0  0  0  0  0  0  0  0  0  0  0
   -1.2340    1.1475   -0.8458 H   0  0  0  0  0  0  0  0  0  0  0  0
    0.5876    1.2863    0.2595 C   0  0  0  0  0  0  0  0  0  0  0  0
    0.9148    1.3360    1.3119 H   0  0  0  0  0  0  0  0  0  0  0  0
    1.2771    0.0879   -0.4028 C   0  0  0  0  0  0  0  0  0  0  0  0
    0.8673   -0.0287   -1.4169 H   0  0  0  0  0  0  0  0  0  0  0  0
    0.9820   -1.1904    0.4125 C   0  0  0  0  0  0  0  0  0  0  0  0
    1.8155   -1.3810    1.1005 H   0  0  0  0  0  0  0  0  0  0  0  0
   -0.1323   -1.0339    1.2596 O   0  0  0  0  0  0  0  0  0  0  0  0
    0.8916   -2.3160   -0.3962 O   0  0  0  0  0  0  0  0  0  0  0  0
    2.6554    0.3684   -0.4587 O   0  0  0  0  0  0  0  0  0  0  0  0
    0.8986    2.4843   -0.4009 O   0  0  0  0  0  0  0  0  0  0  0  0
   -1.6547    2.0592    0.8708 O   0  0  0  0  0  0  0  0  0  0  0  0
   -1.3966   -1.2693   -1.5019 O   0  0  0  0  0  0  0  0  0  0  0  0
   -3.0397   -0.6616   -0.3976 H   0  0  0  0  0  0  0  0  0  0  0  0
   -2.2481   -2.1694    0.1569 H   0  0  0  0  0  0  0  0  0  0  0  0
    0.1410   -2.1893   -1.0142 H   0  0  0  0  0  0  0  0  0  0  0  0
    3.1121   -0.3325   -0.9442 H   0  0  0  0  0  0  0  0  0  0  0  0
    1.8586    2.5073   -0.5398 H   0  0  0  0  0  0  0  0  0  0  0  0
   -1.2702    2.2205    1.7445 H   0  0  0  0  0  0  0  0  0  0  0  0
   -2.0004   -1.6258   -2.1696 H   0  0  0  0  0  0  0  0  0  0  0  0
  1  2  1  0  0  0  0
  2  3  1  0  0  0  0
  2  4  1  0  0  0  0
  4  5  1  0  0  0  0
  4  6  1  0  0  0  0
  6  7  1  0  0  0  0
  6  8  1  0  0  0  0
  8  9  1  0  0  0  0
  8 10  1  0  0  0  0
 10 11  1  0  0  0  0
  2 12  1  0  0  0  0
 10 12  1  0  0  0  0
 10 13  1  0  0  0  0
  8 14  1  0  0  0  0
  6 15  1  0  0  0  0
  4 16  1  0  0  0  0
  1 17  1  0  0  0  0
  1 18  1  0  0  0  0
  1 19  1  0  0  0  0
 13 20  1  0  0  0  0
 14 21  1  0  0  0  0
 15 22  1  0  0  0  0
 16 23  1  0  0  0  0
 17 24  1  0  0  0  0
M  END
