 xtb: 6.7.1 (edcfbbe)
          04062518003D

 24 24  0     0  0            999 V2000
   -1.9851   -0.5974   -0.7676 C   0  0  0  0  0  0  0  0  0  0  0  0
   -1.2020   -0.1105    0.4674 C   0  0  0  0  0  0  0  0  0  0  0  0
   -1.8983   -0.1111    1.3159 H   0  0  0  0  0  0  0  0  0  0  0  0
   -0.6335    1.3077    0.2874 C   0  0  0  0  0  0  0  0  0  0  0  0
   -1.3715    1.9004   -0.2729 H   0  0  0  0  0  0  0  0  0  0  0  0
    0.6923    1.3052   -0.5039 C   0  0  0  0  0  0  0  0  0  0  0  0
    1.1412    2.3005   -0.3927 H   0  0  0  0  0  0  0  0  0  0  0  0
    1.6759    0.2918    0.1096 C   0  0  0  0  0  0  0  0  0  0  0  0
    2.5440    0.1951   -0.5526 H   0  0  0  0  0  0  0  0  0  0  0  0
    1.0102   -1.0953    0.1982 C   0  0  0  0  0  0  0  0  0  0  0  0
    1.6249   -1.7530    0.8262 H   0  0  0  0  0  0  0  0  0  0  0  0
   -0.2191   -1.0559    0.8859 O   0  0  0  0  0  0  0  0  0  0  0  0
    0.9134   -1.7051   -1.0508 O   0  0  0  0  0  0  0  0  0  0  0  0
    2.1728    0.7190    1.3467 O   0  0  0  0  0  0  0  0  0  0  0  0
    0.4981    0.9707   -1.8577 O   0  0  0  0  0  0  0  0  0  0  0  0
   -0.3505    1.9193    1.5257 O   0  0  0  0  0  0  0  0  0  0  0  0
   -2.5145   -1.8831   -0.5587 O   0  0  0  0  0  0  0  0  0  0  0  0
   -1.3511   -0.5840   -1.6602 H   0  0  0  0  0  0  0  0  0  0  0  0
   -2.8431    0.0589   -0.9284 H   0  0  0  0  0  0  0  0  0  0  0  0
    0.7512   -1.0296   -1.7327 H   0  0  0  0  0  0  0  0  0  0  0  0
    1.4298    1.0213    1.8982 H   0  0  0  0  0  0  0  0  0  0  0  0
    0.2547    1.7543   -2.3699 H   0  0  0  0  0  0  0  0  0  0  0  0
   -1.1630    2.0233    2.0416 H   0  0  0  0  0  0  0  0  0  0  0  0
   -1.7870   -2.4703   -0.3026 H   0  0  0  0  0  0  0  0  0  0  0  0
  1  2  1  0  0  0  0
  2  3  1  0  0  0  0
  2  4  1  0  0  0  0
  4  5  1  0  0  0  0
  4  6  1  0  0  0  0
  6  7  1  0  0  0  0
  6  8  1  0  0  0  0
  8  9  1  0  0  0  0
  8 10  1  0  0  0  0
 10 11  1  0  0  0  0
  2 12  1  0  0  0  0
 10 12  1  0  0  0  0
 10 13  1  0  0  0  0
  8 14  1  0  0  0  0
  6 15  1  0  0  0  0
  4 16  1  0  0  0  0
  1 17  1  0  0  0  0
  1 18  1  0  0  0  0
  1 19  1  0  0  0  0
 13 20  1  0  0  0  0
 14 21  1  0  0  0  0
 15 22  1  0  0  0  0
 16 23  1  0  0  0  0
 17 24  1  0  0  0  0
M  END
