 xtb: 6.7.1 (edcfbbe)
          04042519533D

 15 16  0     0  0            999 V2000
    1.8879   -1.4737    0.0002 C   0  0  0  0  0  0  0  0  0  0  0  0
    2.5799   -0.2646   -0.0005 C   0  0  0  0  0  0  0  0  0  0  0  0
    1.9002    0.9336   -0.0004 C   0  0  0  0  0  0  0  0  0  0  0  0
    0.5022    0.9762   -0.0001 C   0  0  0  0  0  0  0  0  0  0  0  0
   -0.1914   -0.2531    0.0008 C   0  0  0  0  0  0  0  0  0  0  0  0
    0.5147   -1.4628    0.0008 C   0  0  0  0  0  0  0  0  0  0  0  0
   -1.6027   -0.3063    0.0015 N   0  0  0  0  0  0  0  0  0  0  0  0
   -2.2533    0.7289   -0.0019 O   0  0  0  0  0  0  0  0  0  0  0  0
   -2.1397   -1.4114    0.0001 O   0  0  0  0  0  0  0  0  0  0  0  0
   -0.1650    2.1285   -0.0000 O   0  0  0  0  0  0  0  0  0  0  0  0
    2.4222   -2.4087    0.0003 H   0  0  0  0  0  0  0  0  0  0  0  0
    3.6581   -0.2633    0.0006 H   0  0  0  0  0  0  0  0  0  0  0  0
    2.4477    1.8634    0.0000 H   0  0  0  0  0  0  0  0  0  0  0  0
   -0.0585   -2.3766   -0.0011 H   0  0  0  0  0  0  0  0  0  0  0  0
    0.4361    2.8939   -0.0006 H   0  0  0  0  0  0  0  0  0  0  0  0
  1  2  4  0  0  0  0
  2  3  4  0  0  0  0
  3  4  4  0  0  0  0
  4  5  4  0  0  0  0
  1  6  4  0  0  0  0
  5  6  4  0  0  0  0
  5  7  1  0  0  0  0
  7  8  4  0  0  0  0
  7  9  4  0  0  0  0
  8  9  1  0  0  0  0
  4 10  1  0  0  0  0
  1 11  1  0  0  0  0
  2 12  1  0  0  0  0
  3 13  1  0  0  0  0
  6 14  1  0  0  0  0
 10 15  1  0  0  0  0
M  END
