 xtb: 6.7.1 (edcfbbe)
          04062518003D

 24 24  0     0  0            999 V2000
   -2.4868   -0.2133   -0.5399 C   0  0  0  0  0  0  0  0  0  0  0  0
   -1.2134   -0.1932    0.3125 C   0  0  0  0  0  0  0  0  0  0  0  0
   -1.4467   -0.5523    1.3272 H   0  0  0  0  0  0  0  0  0  0  0  0
   -0.6103    1.2195    0.4532 C   0  0  0  0  0  0  0  0  0  0  0  0
   -1.3514    1.9639    0.1255 H   0  0  0  0  0  0  0  0  0  0  0  0
    0.6286    1.3476   -0.4605 C   0  0  0  0  0  0  0  0  0  0  0  0
    1.0741    2.3400   -0.3324 H   0  0  0  0  0  0  0  0  0  0  0  0
    1.6924    0.3036   -0.0726 C   0  0  0  0  0  0  0  0  0  0  0  0
    2.3042    0.0950   -0.9627 H   0  0  0  0  0  0  0  0  0  0  0  0
    0.9890   -1.0113    0.3295 C   0  0  0  0  0  0  0  0  0  0  0  0
    0.8513   -1.0162    1.4284 H   0  0  0  0  0  0  0  0  0  0  0  0
   -0.2843   -1.0904   -0.2845 O   0  0  0  0  0  0  0  0  0  0  0  0
    1.7605   -2.0706   -0.1028 O   0  0  0  0  0  0  0  0  0  0  0  0
    2.4759    0.8306    0.9631 O   0  0  0  0  0  0  0  0  0  0  0  0
    0.2710    1.2536   -1.8138 O   0  0  0  0  0  0  0  0  0  0  0  0
   -0.2969    1.4002    1.8113 O   0  0  0  0  0  0  0  0  0  0  0  0
   -3.0660   -1.4900   -0.5999 O   0  0  0  0  0  0  0  0  0  0  0  0
   -2.2578    0.1605   -1.5456 H   0  0  0  0  0  0  0  0  0  0  0  0
   -3.2317    0.4369   -0.0786 H   0  0  0  0  0  0  0  0  0  0  0  0
    1.3117   -2.9118    0.0745 H   0  0  0  0  0  0  0  0  0  0  0  0
    3.2116    0.2321    1.1550 H   0  0  0  0  0  0  0  0  0  0  0  0
    0.0355    0.3325   -2.0070 H   0  0  0  0  0  0  0  0  0  0  0  0
    0.1833    2.2311    1.9366 H   0  0  0  0  0  0  0  0  0  0  0  0
   -2.4153   -2.1079   -0.9632 H   0  0  0  0  0  0  0  0  0  0  0  0
  1  2  1  0  0  0  0
  2  3  1  0  0  0  0
  2  4  1  0  0  0  0
  4  5  1  0  0  0  0
  4  6  1  0  0  0  0
  6  7  1  0  0  0  0
  6  8  1  0  0  0  0
  8  9  1  0  0  0  0
  8 10  1  0  0  0  0
 10 11  1  0  0  0  0
  2 12  1  0  0  0  0
 10 12  1  0  0  0  0
 10 13  1  0  0  0  0
  8 14  1  0  0  0  0
  6 15  1  0  0  0  0
  4 16  1  0  0  0  0
  1 17  1  0  0  0  0
  1 18  1  0  0  0  0
  1 19  1  0  0  0  0
 13 20  1  0  0  0  0
 14 21  1  0  0  0  0
 15 22  1  0  0  0  0
 16 23  1  0  0  0  0
 17 24  1  0  0  0  0
M  END
