 xtb: 6.7.1 (edcfbbe)
          04042516023D

 14 13  0     0  0            999 V2000
   -1.8886   -1.2390   -0.0091 C   0  0  0  0  0  0  0  0  0  0  0  0
   -1.5166    0.2370    0.0079 C   0  0  0  0  0  0  0  0  0  0  0  0
   -0.0341    0.5055    0.0056 C   0  0  0  0  0  0  0  0  0  0  0  0
    0.4468    1.6230    0.0027 O   0  0  0  0  0  0  0  0  0  0  0  0
    0.6959   -0.5994   -0.0006 O   0  0  0  0  0  0  0  0  0  0  0  0
    2.1195   -0.4742   -0.0053 C   0  0  0  0  0  0  0  0  0  0  0  0
   -2.9697   -1.3425   -0.0046 H   0  0  0  0  0  0  0  0  0  0  0  0
   -1.4938   -1.7226   -0.8980 H   0  0  0  0  0  0  0  0  0  0  0  0
   -1.4843   -1.7453    0.8628 H   0  0  0  0  0  0  0  0  0  0  0  0
   -1.9249    0.7308    0.8927 H   0  0  0  0  0  0  0  0  0  0  0  0
   -1.9325    0.7538   -0.8600 H   0  0  0  0  0  0  0  0  0  0  0  0
    2.4799   -0.4120    1.0217 H   0  0  0  0  0  0  0  0  0  0  0  0
    2.4142    0.4253   -0.5473 H   0  0  0  0  0  0  0  0  0  0  0  0
    2.4993   -1.3688   -0.4903 H   0  0  0  0  0  0  0  0  0  0  0  0
  1  2  1  0  0  0  0
  2  3  1  0  0  0  0
  3  4  2  0  0  0  0
  3  5  1  0  0  0  0
  5  6  1  0  0  0  0
  1  7  1  0  0  0  0
  1  8  1  0  0  0  0
  1  9  1  0  0  0  0
  2 10  1  0  0  0  0
  2 11  1  0  0  0  0
  6 12  1  0  0  0  0
  6 13  1  0  0  0  0
  6 14  1  0  0  0  0
M  END
