 xtb: 6.7.1 (edcfbbe)
          04062518003D

 24 24  0     0  0            999 V2000
   -2.4173   -1.1261   -0.2943 C   0  0  0  0  0  0  0  0  0  0  0  0
   -1.0665   -0.6158    0.2363 C   0  0  0  0  0  0  0  0  0  0  0  0
   -1.0856   -0.6233    1.3398 H   0  0  0  0  0  0  0  0  0  0  0  0
   -0.7591    0.8089   -0.2543 C   0  0  0  0  0  0  0  0  0  0  0  0
   -0.7982    0.8218   -1.3496 H   0  0  0  0  0  0  0  0  0  0  0  0
    0.6511    1.2453    0.1805 C   0  0  0  0  0  0  0  0  0  0  0  0
    0.6762    1.3823    1.2753 H   0  0  0  0  0  0  0  0  0  0  0  0
    1.6934    0.1810   -0.1718 C   0  0  0  0  0  0  0  0  0  0  0  0
    1.8363    0.1776   -1.2611 H   0  0  0  0  0  0  0  0  0  0  0  0
    1.2111   -1.2182    0.2579 C   0  0  0  0  0  0  0  0  0  0  0  0
    1.1998   -1.2529    1.3693 H   0  0  0  0  0  0  0  0  0  0  0  0
   -0.0781   -1.5126   -0.2262 O   0  0  0  0  0  0  0  0  0  0  0  0
    2.0927   -2.1436   -0.2618 O   0  0  0  0  0  0  0  0  0  0  0  0
    2.8861    0.5004    0.4944 O   0  0  0  0  0  0  0  0  0  0  0  0
    1.0165    2.4416   -0.4599 O   0  0  0  0  0  0  0  0  0  0  0  0
   -1.7216    1.7420    0.1729 O   0  0  0  0  0  0  0  0  0  0  0  0
   -3.5105   -0.4517    0.2645 O   0  0  0  0  0  0  0  0  0  0  0  0
   -2.5231   -2.1771   -0.0182 H   0  0  0  0  0  0  0  0  0  0  0  0
   -2.4142   -1.0517   -1.3885 H   0  0  0  0  0  0  0  0  0  0  0  0
    1.7190   -3.0352   -0.1806 H   0  0  0  0  0  0  0  0  0  0  0  0
    3.5777   -0.1174    0.2142 H   0  0  0  0  0  0  0  0  0  0  0  0
    0.2934    3.0814   -0.3622 H   0  0  0  0  0  0  0  0  0  0  0  0
   -1.7143    1.7996    1.1408 H   0  0  0  0  0  0  0  0  0  0  0  0
   -3.4536    0.4878    0.0216 H   0  0  0  0  0  0  0  0  0  0  0  0
  1  2  1  0  0  0  0
  2  3  1  0  0  0  0
  2  4  1  0  0  0  0
  4  5  1  0  0  0  0
  4  6  1  0  0  0  0
  6  7  1  0  0  0  0
  6  8  1  0  0  0  0
  8  9  1  0  0  0  0
  8 10  1  0  0  0  0
 10 11  1  0  0  0  0
  2 12  1  0  0  0  0
 10 12  1  0  0  0  0
 10 13  1  0  0  0  0
  8 14  1  0  0  0  0
  6 15  1  0  0  0  0
  4 16  1  0  0  0  0
  1 17  1  0  0  0  0
  1 18  1  0  0  0  0
  1 19  1  0  0  0  0
 13 20  1  0  0  0  0
 14 21  1  0  0  0  0
 15 22  1  0  0  0  0
 16 23  1  0  0  0  0
 17 24  1  0  0  0  0
M  END
