 xtb: 6.7.1 (edcfbbe)
          04042518453D

 14 14  0     0  0            999 V2000
    1.4437    0.9685    0.0209 C   0  0  0  0  0  0  0  0  0  0  0  0
    0.7624   -0.3696   -0.0039 C   0  0  0  0  0  0  0  0  0  0  0  0
    1.4053   -1.4110   -0.0177 O   0  0  0  0  0  0  0  0  0  0  0  0
   -0.7113   -0.4128   -0.0144 C   0  0  0  0  0  0  0  0  0  0  0  0
   -1.5553    0.5876    0.7479 C   0  0  0  0  0  0  0  0  0  0  0  0
   -1.5465    0.6256   -0.7338 C   0  0  0  0  0  0  0  0  0  0  0  0
    1.1737    1.5413   -0.8622 H   0  0  0  0  0  0  0  0  0  0  0  0
    1.1391    1.5298    0.8998 H   0  0  0  0  0  0  0  0  0  0  0  0
    2.5201    0.8220    0.0399 H   0  0  0  0  0  0  0  0  0  0  0  0
   -1.0769   -1.4332   -0.0414 H   0  0  0  0  0  0  0  0  0  0  0  0
   -2.4239    0.1974    1.2543 H   0  0  0  0  0  0  0  0  0  0  0  0
   -1.0480    1.3691    1.2893 H   0  0  0  0  0  0  0  0  0  0  0  0
   -2.4095    0.2625   -1.2694 H   0  0  0  0  0  0  0  0  0  0  0  0
   -1.0330    1.4339   -1.2279 H   0  0  0  0  0  0  0  0  0  0  0  0
  1  2  1  0  0  0  0
  2  3  2  0  0  0  0
  2  4  1  0  0  0  0
  4  5  1  0  0  0  0
  4  6  1  0  0  0  0
  5  6  1  0  0  0  0
  1  7  1  0  0  0  0
  1  8  1  0  0  0  0
  1  9  1  0  0  0  0
  4 10  1  0  0  0  0
  5 11  1  0  0  0  0
  5 12  1  0  0  0  0
  6 13  1  0  0  0  0
  6 14  1  0  0  0  0
M  END
