 xtb: 6.7.1 (edcfbbe)
          04042523483D

 16 15  0     0  0            999 V2000
    1.2545    1.4600   -0.2321 C   0  0  0  0  0  0  0  0  0  0  0  0
    0.7169    0.0456   -0.4251 C   0  0  0  0  0  0  0  0  0  0  0  0
    1.5185   -0.9609    0.4113 C   0  0  0  0  0  0  0  0  0  0  0  0
   -0.7380   -0.0548   -0.0113 C   0  0  0  0  0  0  0  0  0  0  0  0
   -1.2808    0.7918    0.6717 O   0  0  0  0  0  0  0  0  0  0  0  0
   -1.4711   -1.2820   -0.4772 C   0  0  0  0  0  0  0  0  0  0  0  0
    1.1507    1.7596    0.8083 H   0  0  0  0  0  0  0  0  0  0  0  0
    2.3033    1.5083   -0.5112 H   0  0  0  0  0  0  0  0  0  0  0  0
    0.6939    2.1653   -0.8414 H   0  0  0  0  0  0  0  0  0  0  0  0
    0.7893   -0.2351   -1.4803 H   0  0  0  0  0  0  0  0  0  0  0  0
    1.1575   -1.9743    0.2619 H   0  0  0  0  0  0  0  0  0  0  0  0
    1.4366   -0.7138    1.4675 H   0  0  0  0  0  0  0  0  0  0  0  0
    2.5661   -0.9181    0.1266 H   0  0  0  0  0  0  0  0  0  0  0  0
   -0.8486   -1.9236   -1.0899 H   0  0  0  0  0  0  0  0  0  0  0  0
   -2.3465   -0.9683   -1.0422 H   0  0  0  0  0  0  0  0  0  0  0  0
   -1.8335   -1.8293    0.3906 H   0  0  0  0  0  0  0  0  0  0  0  0
  1  2  1  0  0  0  0
  2  3  1  0  0  0  0
  2  4  1  0  0  0  0
  4  5  2  0  0  0  0
  4  6  1  0  0  0  0
  1  7  1  0  0  0  0
  1  8  1  0  0  0  0
  1  9  1  0  0  0  0
  2 10  1  0  0  0  0
  3 11  1  0  0  0  0
  3 12  1  0  0  0  0
  3 13  1  0  0  0  0
  6 14  1  0  0  0  0
  6 15  1  0  0  0  0
  6 16  1  0  0  0  0
M  END
