 xtb: 6.7.1 (edcfbbe)
          04032521413D

 15 15  0     0  0            999 V2000
   -0.4649   -1.3736    0.0006 C   0  0  0  0  0  0  0  0  0  0  0  0
    0.2597   -0.2264   -0.0005 C   0  0  0  0  0  0  0  0  0  0  0  0
   -0.4099    1.0701    0.0003 C   0  0  0  0  0  0  0  0  0  0  0  0
    0.1441    2.1523    0.0020 O   0  0  0  0  0  0  0  0  0  0  0  0
   -1.7887    0.9710   -0.0018 N   0  0  0  0  0  0  0  0  0  0  0  0
   -2.5420   -0.1755   -0.0002 C   0  0  0  0  0  0  0  0  0  0  0  0
   -3.7518   -0.1737   -0.0010 O   0  0  0  0  0  0  0  0  0  0  0  0
   -1.8082   -1.3476    0.0021 N   0  0  0  0  0  0  0  0  0  0  0  0
    1.7529   -0.2187   -0.0005 C   0  0  0  0  0  0  0  0  0  0  0  0
    2.2740   -1.4587   -0.0115 F   0  0  0  0  0  0  0  0  0  0  0  0
    2.2749    0.4084   -1.0705 F   0  0  0  0  0  0  0  0  0  0  0  0
    2.2747    0.3894    1.0810 F   0  0  0  0  0  0  0  0  0  0  0  0
    0.0128   -2.3437    0.0010 H   0  0  0  0  0  0  0  0  0  0  0  0
   -2.3036    1.8483   -0.0027 H   0  0  0  0  0  0  0  0  0  0  0  0
   -2.3429   -2.2119    0.0030 H   0  0  0  0  0  0  0  0  0  0  0  0
  1  2  2  0  0  0  0
  2  3  1  0  0  0  0
  3  4  2  0  0  0  0
  3  5  1  0  0  0  0
  5  6  1  0  0  0  0
  6  7  2  0  0  0  0
  1  8  4  0  0  0  0
  6  8  1  0  0  0  0
  2  9  1  0  0  0  0
  9 10  1  0  0  0  0
  9 11  1  0  0  0  0
  9 12  1  0  0  0  0
  1 13  1  0  0  0  0
  5 14  1  0  0  0  0
  8 15  1  0  0  0  0
M  END
