 xtb: 6.7.1 (edcfbbe)
          04062518003D

 24 24  0     0  0            999 V2000
   -2.5584   -0.6864   -0.3017 C   0  0  0  0  0  0  0  0  0  0  0  0
   -1.1607   -0.3131    0.2094 C   0  0  0  0  0  0  0  0  0  0  0  0
   -1.1750   -0.2310    1.3084 H   0  0  0  0  0  0  0  0  0  0  0  0
   -0.7025    1.0330   -0.3688 C   0  0  0  0  0  0  0  0  0  0  0  0
   -0.7006    0.9519   -1.4688 H   0  0  0  0  0  0  0  0  0  0  0  0
    0.7226    1.3299    0.1184 C   0  0  0  0  0  0  0  0  0  0  0  0
    0.6959    1.5014    1.2013 H   0  0  0  0  0  0  0  0  0  0  0  0
    1.6712    0.1550   -0.1636 C   0  0  0  0  0  0  0  0  0  0  0  0
    1.8465    0.0639   -1.2475 H   0  0  0  0  0  0  0  0  0  0  0  0
    1.0491   -1.1708    0.3048 C   0  0  0  0  0  0  0  0  0  0  0  0
    1.0414   -1.1700    1.4155 H   0  0  0  0  0  0  0  0  0  0  0  0
   -0.2640   -1.3340   -0.1781 O   0  0  0  0  0  0  0  0  0  0  0  0
    1.8082   -2.2072   -0.1933 O   0  0  0  0  0  0  0  0  0  0  0  0
    2.8848    0.3167    0.5219 O   0  0  0  0  0  0  0  0  0  0  0  0
    1.2132    2.5299   -0.4307 O   0  0  0  0  0  0  0  0  0  0  0  0
   -1.5975    2.0324    0.0448 O   0  0  0  0  0  0  0  0  0  0  0  0
   -3.1480   -1.7453    0.4035 O   0  0  0  0  0  0  0  0  0  0  0  0
   -2.4670   -1.0299   -1.3336 H   0  0  0  0  0  0  0  0  0  0  0  0
   -3.1816    0.2141   -0.2658 H   0  0  0  0  0  0  0  0  0  0  0  0
    1.3451   -3.0470   -0.0433 H   0  0  0  0  0  0  0  0  0  0  0  0
    3.2389    1.1993    0.3262 H   0  0  0  0  0  0  0  0  0  0  0  0
    1.2866    2.4461   -1.3938 H   0  0  0  0  0  0  0  0  0  0  0  0
   -1.1774    2.8986   -0.0817 H   0  0  0  0  0  0  0  0  0  0  0  0
   -3.3249   -1.4713    1.3148 H   0  0  0  0  0  0  0  0  0  0  0  0
  1  2  1  0  0  0  0
  2  3  1  0  0  0  0
  2  4  1  0  0  0  0
  4  5  1  0  0  0  0
  4  6  1  0  0  0  0
  6  7  1  0  0  0  0
  6  8  1  0  0  0  0
  8  9  1  0  0  0  0
  8 10  1  0  0  0  0
 10 11  1  0  0  0  0
  2 12  1  0  0  0  0
 10 12  1  0  0  0  0
 10 13  1  0  0  0  0
  8 14  1  0  0  0  0
  6 15  1  0  0  0  0
  4 16  1  0  0  0  0
  1 17  1  0  0  0  0
  1 18  1  0  0  0  0
  1 19  1  0  0  0  0
 13 20  1  0  0  0  0
 14 21  1  0  0  0  0
 15 22  1  0  0  0  0
 16 23  1  0  0  0  0
 17 24  1  0  0  0  0
M  END
