 xtb: 6.7.1 (edcfbbe)
          04062518003D

 24 24  0     0  0            999 V2000
   -1.8853   -0.5933   -0.8244 C   0  0  0  0  0  0  0  0  0  0  0  0
   -1.2149   -0.1127    0.4761 C   0  0  0  0  0  0  0  0  0  0  0  0
   -1.9641   -0.1461    1.2766 H   0  0  0  0  0  0  0  0  0  0  0  0
   -0.6547    1.3119    0.3515 C   0  0  0  0  0  0  0  0  0  0  0  0
   -1.4107    1.9381   -0.1450 H   0  0  0  0  0  0  0  0  0  0  0  0
    0.6434    1.3464   -0.4832 C   0  0  0  0  0  0  0  0  0  0  0  0
    1.1165    2.3232   -0.3012 H   0  0  0  0  0  0  0  0  0  0  0  0
    1.6335    0.2858    0.0288 C   0  0  0  0  0  0  0  0  0  0  0  0
    2.4277    0.1754   -0.7175 H   0  0  0  0  0  0  0  0  0  0  0  0
    0.9684   -1.0959    0.2368 C   0  0  0  0  0  0  0  0  0  0  0  0
    1.6317   -1.6811    0.8954 H   0  0  0  0  0  0  0  0  0  0  0  0
   -0.2245   -1.0219    0.9548 O   0  0  0  0  0  0  0  0  0  0  0  0
    0.7377   -1.7850   -0.9641 O   0  0  0  0  0  0  0  0  0  0  0  0
    2.2613    0.7026    1.2134 O   0  0  0  0  0  0  0  0  0  0  0  0
    0.4252    1.1402   -1.8534 O   0  0  0  0  0  0  0  0  0  0  0  0
   -0.3171    1.8495    1.6114 O   0  0  0  0  0  0  0  0  0  0  0  0
   -2.3960   -1.8965   -0.6859 O   0  0  0  0  0  0  0  0  0  0  0  0
   -1.1737   -0.5443   -1.6541 H   0  0  0  0  0  0  0  0  0  0  0  0
   -2.7440    0.0467   -1.0371 H   0  0  0  0  0  0  0  0  0  0  0  0
    1.5734   -2.0133   -1.3917 H   0  0  0  0  0  0  0  0  0  0  0  0
    1.5788    1.0104    1.8345 H   0  0  0  0  0  0  0  0  0  0  0  0
    0.0593    1.9409   -2.2549 H   0  0  0  0  0  0  0  0  0  0  0  0
   -1.0989    1.8770    2.1817 H   0  0  0  0  0  0  0  0  0  0  0  0
   -1.6480   -2.4880   -0.5148 H   0  0  0  0  0  0  0  0  0  0  0  0
  1  2  1  0  0  0  0
  2  3  1  0  0  0  0
  2  4  1  0  0  0  0
  4  5  1  0  0  0  0
  4  6  1  0  0  0  0
  6  7  1  0  0  0  0
  6  8  1  0  0  0  0
  8  9  1  0  0  0  0
  8 10  1  0  0  0  0
 10 11  1  0  0  0  0
  2 12  1  0  0  0  0
 10 12  1  0  0  0  0
 10 13  1  0  0  0  0
  8 14  1  0  0  0  0
  6 15  1  0  0  0  0
  4 16  1  0  0  0  0
  1 17  1  0  0  0  0
  1 18  1  0  0  0  0
  1 19  1  0  0  0  0
 13 20  1  0  0  0  0
 14 21  1  0  0  0  0
 15 22  1  0  0  0  0
 16 23  1  0  0  0  0
 17 24  1  0  0  0  0
M  END
