 xtb: 6.7.1 (edcfbbe)
          04042516023D

 14 13  0     0  0            999 V2000
   -1.9809   -0.9483    0.5786 C   0  0  0  0  0  0  0  0  0  0  0  0
   -1.4420   -0.0134   -0.5028 C   0  0  0  0  0  0  0  0  0  0  0  0
   -0.0226    0.4179   -0.2336 C   0  0  0  0  0  0  0  0  0  0  0  0
    0.3663    1.5675   -0.2897 O   0  0  0  0  0  0  0  0  0  0  0  0
    0.7613   -0.6112    0.0547 O   0  0  0  0  0  0  0  0  0  0  0  0
    2.1454   -0.3800    0.3306 C   0  0  0  0  0  0  0  0  0  0  0  0
   -2.9965   -1.2437    0.3325 H   0  0  0  0  0  0  0  0  0  0  0  0
   -1.3618   -1.8376    0.6515 H   0  0  0  0  0  0  0  0  0  0  0  0
   -1.9890   -0.4484    1.5439 H   0  0  0  0  0  0  0  0  0  0  0  0
   -2.0524    0.8858   -0.5864 H   0  0  0  0  0  0  0  0  0  0  0  0
   -1.4462   -0.5286   -1.4654 H   0  0  0  0  0  0  0  0  0  0  0  0
    2.3888    0.6687    0.1572 H   0  0  0  0  0  0  0  0  0  0  0  0
    2.7201   -1.0235   -0.3323 H   0  0  0  0  0  0  0  0  0  0  0  0
    2.3307   -0.6448    1.3704 H   0  0  0  0  0  0  0  0  0  0  0  0
  1  2  1  0  0  0  0
  2  3  1  0  0  0  0
  3  4  2  0  0  0  0
  3  5  1  0  0  0  0
  5  6  1  0  0  0  0
  1  7  1  0  0  0  0
  1  8  1  0  0  0  0
  1  9  1  0  0  0  0
  2 10  1  0  0  0  0
  2 11  1  0  0  0  0
  6 12  1  0  0  0  0
  6 13  1  0  0  0  0
  6 14  1  0  0  0  0
M  END
