 xtb: 6.7.1 (edcfbbe)
          04032521453D

 17 17  0     0  0            999 V2000
    1.8338   -1.4734   -0.0002 C   0  0  0  0  0  0  0  0  0  0  0  0
    0.5398   -0.7187    0.0002 C   0  0  0  0  0  0  0  0  0  0  0  0
   -0.6693   -1.4032    0.0001 C   0  0  0  0  0  0  0  0  0  0  0  0
   -1.8650   -0.7042   -0.0001 C   0  0  0  0  0  0  0  0  0  0  0  0
   -1.8021    0.6783   -0.0002 C   0  0  0  0  0  0  0  0  0  0  0  0
   -0.6627    1.3481    0.0001 N   0  0  0  0  0  0  0  0  0  0  0  0
    0.4884    0.6823    0.0003 C   0  0  0  0  0  0  0  0  0  0  0  0
    1.7159    1.5419   -0.0001 C   0  0  0  0  0  0  0  0  0  0  0  0
    1.6435   -2.5436   -0.0026 H   0  0  0  0  0  0  0  0  0  0  0  0
    2.4224   -1.2248   -0.8814 H   0  0  0  0  0  0  0  0  0  0  0  0
    2.4205   -1.2287    0.8835 H   0  0  0  0  0  0  0  0  0  0  0  0
   -0.6733   -2.4844    0.0001 H   0  0  0  0  0  0  0  0  0  0  0  0
   -2.8139   -1.2164    0.0001 H   0  0  0  0  0  0  0  0  0  0  0  0
   -2.6979    1.2856    0.0001 H   0  0  0  0  0  0  0  0  0  0  0  0
    1.6969    2.1946    0.8697 H   0  0  0  0  0  0  0  0  0  0  0  0
    2.6258    0.9544    0.0111 H   0  0  0  0  0  0  0  0  0  0  0  0
    1.7082    2.1779   -0.8825 H   0  0  0  0  0  0  0  0  0  0  0  0
  1  2  1  0  0  0  0
  2  3  4  0  0  0  0
  3  4  4  0  0  0  0
  4  5  4  0  0  0  0
  5  6  4  0  0  0  0
  2  7  4  0  0  0  0
  6  7  4  0  0  0  0
  7  8  1  0  0  0  0
  1  9  1  0  0  0  0
  1 10  1  0  0  0  0
  1 11  1  0  0  0  0
  3 12  1  0  0  0  0
  4 13  1  0  0  0  0
  5 14  1  0  0  0  0
  8 15  1  0  0  0  0
  8 16  1  0  0  0  0
  8 17  1  0  0  0  0
M  END
