 xtb: 6.7.1 (edcfbbe)
          04042521073D

 15 14  0     0  0            999 V2000
   -2.3909    0.0650   -0.0081 C   0  0  0  0  0  0  0  0  0  0  0  0
   -0.9242    0.4749    0.0547 C   0  0  0  0  0  0  0  0  0  0  0  0
    0.0010   -0.6949   -0.1158 C   0  0  0  0  0  0  0  0  0  0  0  0
    1.3236   -0.6241   -0.0862 C   0  0  0  0  0  0  0  0  0  0  0  0
    2.1054    0.6330    0.1283 C   0  0  0  0  0  0  0  0  0  0  0  0
   -3.0354    0.9319    0.1184 H   0  0  0  0  0  0  0  0  0  0  0  0
   -2.6198   -0.6512    0.7783 H   0  0  0  0  0  0  0  0  0  0  0  0
   -2.6170   -0.3937   -0.9683 H   0  0  0  0  0  0  0  0  0  0  0  0
   -0.7201    1.2150   -0.7255 H   0  0  0  0  0  0  0  0  0  0  0  0
   -0.7219    0.9590    1.0146 H   0  0  0  0  0  0  0  0  0  0  0  0
   -0.4767   -1.6531   -0.2680 H   0  0  0  0  0  0  0  0  0  0  0  0
    1.9062   -1.5281   -0.2028 H   0  0  0  0  0  0  0  0  0  0  0  0
    2.2186    0.8269    1.1954 H   0  0  0  0  0  0  0  0  0  0  0  0
    1.5987    1.4877   -0.3140 H   0  0  0  0  0  0  0  0  0  0  0  0
    3.0982    0.5461   -0.3055 H   0  0  0  0  0  0  0  0  0  0  0  0
  1  2  1  0  0  0  0
  2  3  1  0  0  0  0
  3  4  2  0  0  0  0
  4  5  1  0  0  0  0
  1  6  1  0  0  0  0
  1  7  1  0  0  0  0
  1  8  1  0  0  0  0
  2  9  1  0  0  0  0
  2 10  1  0  0  0  0
  3 11  1  0  0  0  0
  4 12  1  0  0  0  0
  5 13  1  0  0  0  0
  5 14  1  0  0  0  0
  5 15  1  0  0  0  0
M  END
