 xtb: 6.7.1 (edcfbbe)
          04062518003D

 24 24  0     0  0            999 V2000
   -2.5089   -1.0322    0.3479 C   0  0  0  0  0  0  0  0  0  0  0  0
   -1.0641   -0.5433    0.5805 C   0  0  0  0  0  0  0  0  0  0  0  0
   -0.8903   -0.4599    1.6648 H   0  0  0  0  0  0  0  0  0  0  0  0
   -0.7954    0.8201   -0.0679 C   0  0  0  0  0  0  0  0  0  0  0  0
   -0.9206    0.7056   -1.1580 H   0  0  0  0  0  0  0  0  0  0  0  0
    0.6560    1.2451    0.2121 C   0  0  0  0  0  0  0  0  0  0  0  0
    0.7973    1.3769    1.2915 H   0  0  0  0  0  0  0  0  0  0  0  0
    1.6060    0.1508   -0.2803 C   0  0  0  0  0  0  0  0  0  0  0  0
    1.5324    0.0671   -1.3769 H   0  0  0  0  0  0  0  0  0  0  0  0
    1.1790   -1.2086    0.3092 C   0  0  0  0  0  0  0  0  0  0  0  0
    1.3350   -1.1739    1.4098 H   0  0  0  0  0  0  0  0  0  0  0  0
   -0.1707   -1.5016    0.0440 O   0  0  0  0  0  0  0  0  0  0  0  0
    1.9634   -2.1837   -0.2756 O   0  0  0  0  0  0  0  0  0  0  0  0
    2.9147    0.4715    0.1073 O   0  0  0  0  0  0  0  0  0  0  0  0
    0.9118    2.5072   -0.3488 O   0  0  0  0  0  0  0  0  0  0  0  0
   -1.7115    1.7603    0.4315 O   0  0  0  0  0  0  0  0  0  0  0  0
   -3.0733   -0.6137   -0.8650 O   0  0  0  0  0  0  0  0  0  0  0  0
   -3.1234   -0.7023    1.1911 H   0  0  0  0  0  0  0  0  0  0  0  0
   -2.4874   -2.1231    0.3158 H   0  0  0  0  0  0  0  0  0  0  0  0
    1.5711   -3.0563   -0.1173 H   0  0  0  0  0  0  0  0  0  0  0  0
    3.5065   -0.2488   -0.1581 H   0  0  0  0  0  0  0  0  0  0  0  0
    1.0926    2.4227   -1.2962 H   0  0  0  0  0  0  0  0  0  0  0  0
   -1.3366    2.6466    0.3008 H   0  0  0  0  0  0  0  0  0  0  0  0
   -3.2732    0.3322   -0.8019 H   0  0  0  0  0  0  0  0  0  0  0  0
  1  2  1  0  0  0  0
  2  3  1  0  0  0  0
  2  4  1  0  0  0  0
  4  5  1  0  0  0  0
  4  6  1  0  0  0  0
  6  7  1  0  0  0  0
  6  8  1  0  0  0  0
  8  9  1  0  0  0  0
  8 10  1  0  0  0  0
 10 11  1  0  0  0  0
  2 12  1  0  0  0  0
 10 12  1  0  0  0  0
 10 13  1  0  0  0  0
  8 14  1  0  0  0  0
  6 15  1  0  0  0  0
  4 16  1  0  0  0  0
  1 17  1  0  0  0  0
  1 18  1  0  0  0  0
  1 19  1  0  0  0  0
 13 20  1  0  0  0  0
 14 21  1  0  0  0  0
 15 22  1  0  0  0  0
 16 23  1  0  0  0  0
 17 24  1  0  0  0  0
M  END
