 xtb: 6.7.1 (edcfbbe)
          04062518003D

 24 24  0     0  0            999 V2000
   -2.5513   -0.9112    0.3032 C   0  0  0  0  0  0  0  0  0  0  0  0
   -1.1190   -0.4563    0.6269 C   0  0  0  0  0  0  0  0  0  0  0  0
   -0.9820   -0.4303    1.7202 H   0  0  0  0  0  0  0  0  0  0  0  0
   -0.8371    0.9406    0.0476 C   0  0  0  0  0  0  0  0  0  0  0  0
   -1.0928    0.9372   -1.0178 H   0  0  0  0  0  0  0  0  0  0  0  0
    0.6492    1.2889    0.2135 C   0  0  0  0  0  0  0  0  0  0  0  0
    0.8704    1.4133    1.2886 H   0  0  0  0  0  0  0  0  0  0  0  0
    1.5425    0.1643   -0.3239 C   0  0  0  0  0  0  0  0  0  0  0  0
    1.3985    0.0961   -1.4136 H   0  0  0  0  0  0  0  0  0  0  0  0
    1.1250   -1.1717    0.3183 C   0  0  0  0  0  0  0  0  0  0  0  0
    1.3084   -1.1161    1.4035 H   0  0  0  0  0  0  0  0  0  0  0  0
   -0.2438   -1.4172    0.0638 O   0  0  0  0  0  0  0  0  0  0  0  0
    1.8472   -2.2501   -0.1305 O   0  0  0  0  0  0  0  0  0  0  0  0
    2.8919    0.3908   -0.0164 O   0  0  0  0  0  0  0  0  0  0  0  0
    0.9834    2.4700   -0.4769 O   0  0  0  0  0  0  0  0  0  0  0  0
   -1.6452    1.9337    0.6250 O   0  0  0  0  0  0  0  0  0  0  0  0
   -2.7503   -1.0898   -1.0731 O   0  0  0  0  0  0  0  0  0  0  0  0
   -3.2505   -0.1338    0.6160 H   0  0  0  0  0  0  0  0  0  0  0  0
   -2.7600   -1.8380    0.8501 H   0  0  0  0  0  0  0  0  0  0  0  0
    1.7457   -2.3492   -1.0905 H   0  0  0  0  0  0  0  0  0  0  0  0
    3.1359    1.2690   -0.3481 H   0  0  0  0  0  0  0  0  0  0  0  0
    0.2790    3.1215   -0.3391 H   0  0  0  0  0  0  0  0  0  0  0  0
   -1.5226    1.9441    1.5862 H   0  0  0  0  0  0  0  0  0  0  0  0
   -2.1374   -1.7731   -1.3807 H   0  0  0  0  0  0  0  0  0  0  0  0
  1  2  1  0  0  0  0
  2  3  1  0  0  0  0
  2  4  1  0  0  0  0
  4  5  1  0  0  0  0
  4  6  1  0  0  0  0
  6  7  1  0  0  0  0
  6  8  1  0  0  0  0
  8  9  1  0  0  0  0
  8 10  1  0  0  0  0
 10 11  1  0  0  0  0
  2 12  1  0  0  0  0
 10 12  1  0  0  0  0
 10 13  1  0  0  0  0
  8 14  1  0  0  0  0
  6 15  1  0  0  0  0
  4 16  1  0  0  0  0
  1 17  1  0  0  0  0
  1 18  1  0  0  0  0
  1 19  1  0  0  0  0
 13 20  1  0  0  0  0
 14 21  1  0  0  0  0
 15 22  1  0  0  0  0
 16 23  1  0  0  0  0
 17 24  1  0  0  0  0
M  END
