 xtb: 6.7.1 (edcfbbe)
          04032520573D

  6  5  0     0  0            999 V2000
    1.2369   -0.0097   -0.0000 C   0  0  0  0  0  0  0  0  0  0  0  0
   -0.5878    0.0437   -0.0000 S   0  0  0  0  0  0  0  0  0  0  0  0
    1.5693    1.0230   -0.0000 H   0  0  0  0  0  0  0  0  0  0  0  0
    1.5817   -0.5141   -0.8960 H   0  0  0  0  0  0  0  0  0  0  0  0
    1.5817   -0.5141    0.8961 H   0  0  0  0  0  0  0  0  0  0  0  0
   -0.7736   -1.2697    0.0000 H   0  0  0  0  0  0  0  0  0  0  0  0
  1  2  1  0  0  0  0
  1  3  1  0  0  0  0
  1  4  1  0  0  0  0
  1  5  1  0  0  0  0
  2  6  1  0  0  0  0
M  END
