 xtb: 6.7.1 (edcfbbe)
          04062518003D

 24 24  0     0  0            999 V2000
   -2.2729   -0.6826   -0.7896 C   0  0  0  0  0  0  0  0  0  0  0  0
   -1.1102   -0.5662    0.2083 C   0  0  0  0  0  0  0  0  0  0  0  0
   -1.4011   -0.9931    1.1848 H   0  0  0  0  0  0  0  0  0  0  0  0
   -0.7175    0.9101    0.4368 C   0  0  0  0  0  0  0  0  0  0  0  0
   -1.5618    1.5382    0.1325 H   0  0  0  0  0  0  0  0  0  0  0  0
    0.4955    1.2646   -0.4375 C   0  0  0  0  0  0  0  0  0  0  0  0
    0.7838    2.3044   -0.2146 H   0  0  0  0  0  0  0  0  0  0  0  0
    1.6867    0.3706   -0.0284 C   0  0  0  0  0  0  0  0  0  0  0  0
    2.4035    0.2978   -0.8531 H   0  0  0  0  0  0  0  0  0  0  0  0
    1.1997   -1.0646    0.2796 C   0  0  0  0  0  0  0  0  0  0  0  0
    1.1012   -1.1707    1.3818 H   0  0  0  0  0  0  0  0  0  0  0  0
   -0.0470   -1.3380   -0.3195 O   0  0  0  0  0  0  0  0  0  0  0  0
    2.1185   -1.9634   -0.2252 O   0  0  0  0  0  0  0  0  0  0  0  0
    2.3921    0.9271    1.0471 O   0  0  0  0  0  0  0  0  0  0  0  0
    0.1177    1.1299   -1.7799 O   0  0  0  0  0  0  0  0  0  0  0  0
   -0.3516    1.1579    1.7778 O   0  0  0  0  0  0  0  0  0  0  0  0
   -3.4570   -0.1104   -0.2993 O   0  0  0  0  0  0  0  0  0  0  0  0
   -2.4027   -1.7381   -1.0477 H   0  0  0  0  0  0  0  0  0  0  0  0
   -2.0016   -0.1326   -1.6925 H   0  0  0  0  0  0  0  0  0  0  0  0
    1.7331   -2.8541   -0.2284 H   0  0  0  0  0  0  0  0  0  0  0  0
    1.7644    1.1069    1.7674 H   0  0  0  0  0  0  0  0  0  0  0  0
    0.8675    1.3419   -2.3540 H   0  0  0  0  0  0  0  0  0  0  0  0
   -1.1369    1.3537    2.3073 H   0  0  0  0  0  0  0  0  0  0  0  0
   -3.8504   -0.6927    0.3667 H   0  0  0  0  0  0  0  0  0  0  0  0
  1  2  1  0  0  0  0
  2  3  1  0  0  0  0
  2  4  1  0  0  0  0
  4  5  1  0  0  0  0
  4  6  1  0  0  0  0
  6  7  1  0  0  0  0
  6  8  1  0  0  0  0
  8  9  1  0  0  0  0
  8 10  1  0  0  0  0
 10 11  1  0  0  0  0
  2 12  1  0  0  0  0
 10 12  1  0  0  0  0
 10 13  1  0  0  0  0
  8 14  1  0  0  0  0
  6 15  1  0  0  0  0
  4 16  1  0  0  0  0
  1 17  1  0  0  0  0
  1 18  1  0  0  0  0
  1 19  1  0  0  0  0
 13 20  1  0  0  0  0
 14 21  1  0  0  0  0
 15 22  1  0  0  0  0
 16 23  1  0  0  0  0
 17 24  1  0  0  0  0
M  END
