 xtb: 6.7.1 (edcfbbe)
          04062520053D

 27 27  0     0  0            999 V2000
   -3.4320    0.5925    0.1508 C   0  0  0  0  0  0  0  0  0  0  0  0
   -1.9358    0.4814    0.1167 C   0  0  0  0  0  0  0  0  0  0  0  0
   -1.1481    1.5191   -0.1316 C   0  0  0  0  0  0  0  0  0  0  0  0
    0.3464    1.4705   -0.1619 C   0  0  0  0  0  0  0  0  0  0  0  0
    0.8548    0.0321   -0.2748 C   0  0  0  0  0  0  0  0  0  0  0  0
    0.5772   -0.3575   -1.2600 H   0  0  0  0  0  0  0  0  0  0  0  0
    0.1121   -0.8224    0.7586 C   0  0  0  0  0  0  0  0  0  0  0  0
   -1.3675   -0.8967    0.3844 C   0  0  0  0  0  0  0  0  0  0  0  0
   -1.9249   -1.3568    1.2192 H   0  0  0  0  0  0  0  0  0  0  0  0
   -1.4775   -1.7480   -0.7531 O   0  0  0  0  0  0  0  0  0  0  0  0
    2.3504   -0.0854   -0.1244 C   0  0  0  0  0  0  0  0  0  0  0  0
    3.0738   -0.7350   -1.0239 C   0  0  0  0  0  0  0  0  0  0  0  0
    2.9816    0.5441    1.0813 C   0  0  0  0  0  0  0  0  0  0  0  0
   -3.7416    1.6245    0.0118 H   0  0  0  0  0  0  0  0  0  0  0  0
   -3.8138    0.2362    1.1071 H   0  0  0  0  0  0  0  0  0  0  0  0
   -3.8873   -0.0089   -0.6353 H   0  0  0  0  0  0  0  0  0  0  0  0
   -1.5872    2.4931   -0.3056 H   0  0  0  0  0  0  0  0  0  0  0  0
    0.7164    2.0647   -1.0008 H   0  0  0  0  0  0  0  0  0  0  0  0
    0.7208    1.9315    0.7566 H   0  0  0  0  0  0  0  0  0  0  0  0
    0.5195   -1.8344    0.7708 H   0  0  0  0  0  0  0  0  0  0  0  0
    0.2029   -0.3880    1.7543 H   0  0  0  0  0  0  0  0  0  0  0  0
   -2.4003   -1.7787   -1.0365 H   0  0  0  0  0  0  0  0  0  0  0  0
    4.1405   -0.8488   -0.9244 H   0  0  0  0  0  0  0  0  0  0  0  0
    2.6286   -1.1837   -1.8961 H   0  0  0  0  0  0  0  0  0  0  0  0
    3.0068    1.6274    0.9721 H   0  0  0  0  0  0  0  0  0  0  0  0
    2.4191    0.3064    1.9810 H   0  0  0  0  0  0  0  0  0  0  0  0
    4.0026    0.1925    1.2021 H   0  0  0  0  0  0  0  0  0  0  0  0
  1  2  1  0  0  0  0
  2  3  2  0  0  0  0
  3  4  1  0  0  0  0
  4  5  1  0  0  0  0
  5  6  1  0  0  0  0
  5  7  1  0  0  0  0
  2  8  1  0  0  0  0
  7  8  1  0  0  0  0
  8  9  1  0  0  0  0
  8 10  1  0  0  0  0
  5 11  1  0  0  0  0
 11 12  2  0  0  0  0
 11 13  1  0  0  0  0
  1 14  1  0  0  0  0
  1 15  1  0  0  0  0
  1 16  1  0  0  0  0
  3 17  1  0  0  0  0
  4 18  1  0  0  0  0
  4 19  1  0  0  0  0
  7 20  1  0  0  0  0
  7 21  1  0  0  0  0
 10 22  1  0  0  0  0
 12 23  1  0  0  0  0
 12 24  1  0  0  0  0
 13 25  1  0  0  0  0
 13 26  1  0  0  0  0
 13 27  1  0  0  0  0
M  END
