 xtb: 6.7.1 (edcfbbe)
          04062518003D

 24 24  0     0  0            999 V2000
   -1.6745   -1.3279   -0.5919 C   0  0  0  0  0  0  0  0  0  0  0  0
   -1.1425   -0.5076    0.6017 C   0  0  0  0  0  0  0  0  0  0  0  0
   -1.8941   -0.5225    1.4001 H   0  0  0  0  0  0  0  0  0  0  0  0
   -0.8767    0.9625    0.2128 C   0  0  0  0  0  0  0  0  0  0  0  0
   -1.2813    1.1407   -0.7901 H   0  0  0  0  0  0  0  0  0  0  0  0
    0.6302    1.2777    0.1913 C   0  0  0  0  0  0  0  0  0  0  0  0
    0.9917    1.4278    1.2222 H   0  0  0  0  0  0  0  0  0  0  0  0
    1.4185    0.1095   -0.4054 C   0  0  0  0  0  0  0  0  0  0  0  0
    1.0707   -0.0562   -1.4322 H   0  0  0  0  0  0  0  0  0  0  0  0
    1.1668   -1.1654    0.4296 C   0  0  0  0  0  0  0  0  0  0  0  0
    1.9719   -1.2437    1.1769 H   0  0  0  0  0  0  0  0  0  0  0  0
   -0.0064   -1.1156    1.2032 O   0  0  0  0  0  0  0  0  0  0  0  0
    1.1843   -2.2551   -0.4394 O   0  0  0  0  0  0  0  0  0  0  0  0
    2.7839    0.4370   -0.3839 O   0  0  0  0  0  0  0  0  0  0  0  0
    0.8868    2.4224   -0.5814 O   0  0  0  0  0  0  0  0  0  0  0  0
   -1.5590    1.8711    1.0448 O   0  0  0  0  0  0  0  0  0  0  0  0
   -2.8056   -0.7433   -1.1814 O   0  0  0  0  0  0  0  0  0  0  0  0
   -1.8851   -2.3483   -0.2497 H   0  0  0  0  0  0  0  0  0  0  0  0
   -0.9173   -1.3773   -1.3766 H   0  0  0  0  0  0  0  0  0  0  0  0
    1.1736   -3.0860    0.0600 H   0  0  0  0  0  0  0  0  0  0  0  0
    3.2650   -0.1176   -1.0138 H   0  0  0  0  0  0  0  0  0  0  0  0
    0.3283    3.1459   -0.2584 H   0  0  0  0  0  0  0  0  0  0  0  0
   -1.2631    1.7633    1.9610 H   0  0  0  0  0  0  0  0  0  0  0  0
   -3.5434   -0.7504   -0.5550 H   0  0  0  0  0  0  0  0  0  0  0  0
  1  2  1  0  0  0  0
  2  3  1  0  0  0  0
  2  4  1  0  0  0  0
  4  5  1  0  0  0  0
  4  6  1  0  0  0  0
  6  7  1  0  0  0  0
  6  8  1  0  0  0  0
  8  9  1  0  0  0  0
  8 10  1  0  0  0  0
 10 11  1  0  0  0  0
  2 12  1  0  0  0  0
 10 12  1  0  0  0  0
 10 13  1  0  0  0  0
  8 14  1  0  0  0  0
  6 15  1  0  0  0  0
  4 16  1  0  0  0  0
  1 17  1  0  0  0  0
  1 18  1  0  0  0  0
  1 19  1  0  0  0  0
 13 20  1  0  0  0  0
 14 21  1  0  0  0  0
 15 22  1  0  0  0  0
 16 23  1  0  0  0  0
 17 24  1  0  0  0  0
M  END
