 xtb: 6.7.1 (edcfbbe)
          04042519103D

 15 14  0     0  0            999 V2000
   -1.7442   -0.8176    0.0019 C   0  0  0  0  0  0  0  0  0  0  0  0
   -0.5029    0.0032   -0.3365 C   0  0  0  0  0  0  0  0  0  0  0  0
   -0.6587    1.4487    0.1297 C   0  0  0  0  0  0  0  0  0  0  0  0
    0.7391   -0.6303    0.3046 C   0  0  0  0  0  0  0  0  0  0  0  0
    1.9466   -0.0048   -0.0753 O   0  0  0  0  0  0  0  0  0  0  0  0
   -1.6466   -1.8355   -0.3679 H   0  0  0  0  0  0  0  0  0  0  0  0
   -2.6249   -0.3686   -0.4495 H   0  0  0  0  0  0  0  0  0  0  0  0
   -1.8893   -0.8551    1.0790 H   0  0  0  0  0  0  0  0  0  0  0  0
   -0.3637   -0.0015   -1.4242 H   0  0  0  0  0  0  0  0  0  0  0  0
    0.2683    1.9952   -0.0270 H   0  0  0  0  0  0  0  0  0  0  0  0
   -0.8960    1.4766    1.1909 H   0  0  0  0  0  0  0  0  0  0  0  0
   -1.4558    1.9447   -0.4180 H   0  0  0  0  0  0  0  0  0  0  0  0
    0.6899   -0.5265    1.3915 H   0  0  0  0  0  0  0  0  0  0  0  0
    0.7778   -1.7017    0.0630 H   0  0  0  0  0  0  0  0  0  0  0  0
    2.0603   -0.0988   -1.0311 H   0  0  0  0  0  0  0  0  0  0  0  0
  1  2  1  0  0  0  0
  2  3  1  0  0  0  0
  2  4  1  0  0  0  0
  4  5  1  0  0  0  0
  1  6  1  0  0  0  0
  1  7  1  0  0  0  0
  1  8  1  0  0  0  0
  2  9  1  0  0  0  0
  3 10  1  0  0  0  0
  3 11  1  0  0  0  0
  3 12  1  0  0  0  0
  4 13  1  0  0  0  0
  4 14  1  0  0  0  0
  5 15  1  0  0  0  0
M  END
