 xtb: 6.7.1 (edcfbbe)
          04052503223D

 18 17  0     0  0            999 V2000
    1.9019   -1.0491    0.0796 C   0  0  0  0  0  0  0  0  0  0  0  0
    1.1021    0.1862    0.4830 C   0  0  0  0  0  0  0  0  0  0  0  0
   -0.3657    0.2020    0.0046 C   0  0  0  0  0  0  0  0  0  0  0  0
   -1.0281    1.5006    0.4750 C   0  0  0  0  0  0  0  0  0  0  0  0
   -1.1469   -0.9997    0.5462 C   0  0  0  0  0  0  0  0  0  0  0  0
   -0.4305    0.2306   -1.4192 O   0  0  0  0  0  0  0  0  0  0  0  0
    2.9269   -0.9452    0.4271 H   0  0  0  0  0  0  0  0  0  0  0  0
    1.9271   -1.1621   -1.0018 H   0  0  0  0  0  0  0  0  0  0  0  0
    1.4868   -1.9512    0.5210 H   0  0  0  0  0  0  0  0  0  0  0  0
    1.5907    1.0715    0.0694 H   0  0  0  0  0  0  0  0  0  0  0  0
    1.1046    0.2784    1.5699 H   0  0  0  0  0  0  0  0  0  0  0  0
   -0.4870    2.3547    0.0767 H   0  0  0  0  0  0  0  0  0  0  0  0
   -2.0497    1.5426    0.1068 H   0  0  0  0  0  0  0  0  0  0  0  0
   -1.0342    1.5526    1.5591 H   0  0  0  0  0  0  0  0  0  0  0  0
   -2.1891   -0.9221    0.2455 H   0  0  0  0  0  0  0  0  0  0  0  0
   -0.7474   -1.9325    0.1561 H   0  0  0  0  0  0  0  0  0  0  0  0
   -1.0947   -1.0218    1.6307 H   0  0  0  0  0  0  0  0  0  0  0  0
   -0.1207   -0.6179   -1.7621 H   0  0  0  0  0  0  0  0  0  0  0  0
  1  2  1  0  0  0  0
  2  3  1  0  0  0  0
  3  4  1  0  0  0  0
  3  5  1  0  0  0  0
  3  6  1  0  0  0  0
  1  7  1  0  0  0  0
  1  8  1  0  0  0  0
  1  9  1  0  0  0  0
  2 10  1  0  0  0  0
  2 11  1  0  0  0  0
  4 12  1  0  0  0  0
  4 13  1  0  0  0  0
  4 14  1  0  0  0  0
  5 15  1  0  0  0  0
  5 16  1  0  0  0  0
  5 17  1  0  0  0  0
  6 18  1  0  0  0  0
M  END
