 xtb: 6.7.1 (edcfbbe)
          04062518003D

 24 24  0     0  0            999 V2000
   -2.3813   -0.1690   -0.7056 C   0  0  0  0  0  0  0  0  0  0  0  0
   -1.2634   -0.2204    0.3418 C   0  0  0  0  0  0  0  0  0  0  0  0
   -1.6709   -0.5654    1.3052 H   0  0  0  0  0  0  0  0  0  0  0  0
   -0.6258    1.1590    0.5876 C   0  0  0  0  0  0  0  0  0  0  0  0
   -1.3747    1.9270    0.3502 H   0  0  0  0  0  0  0  0  0  0  0  0
    0.5823    1.3936   -0.3388 C   0  0  0  0  0  0  0  0  0  0  0  0
    1.1030    2.3004    0.0034 H   0  0  0  0  0  0  0  0  0  0  0  0
    1.6078    0.2419   -0.2431 C   0  0  0  0  0  0  0  0  0  0  0  0
    1.9002   -0.0429   -1.2672 H   0  0  0  0  0  0  0  0  0  0  0  0
    0.9662   -0.9956    0.4182 C   0  0  0  0  0  0  0  0  0  0  0  0
    0.9162   -0.8421    1.5071 H   0  0  0  0  0  0  0  0  0  0  0  0
   -0.3206   -1.1801   -0.1193 O   0  0  0  0  0  0  0  0  0  0  0  0
    1.7109   -2.1434    0.2093 O   0  0  0  0  0  0  0  0  0  0  0  0
    2.7244    0.7026    0.4743 O   0  0  0  0  0  0  0  0  0  0  0  0
    0.0794    1.5654   -1.6383 O   0  0  0  0  0  0  0  0  0  0  0  0
   -0.2669    1.2198    1.9463 O   0  0  0  0  0  0  0  0  0  0  0  0
   -3.0337   -1.4053   -0.8385 O   0  0  0  0  0  0  0  0  0  0  0  0
   -1.9477    0.1535   -1.6598 H   0  0  0  0  0  0  0  0  0  0  0  0
   -3.1446    0.5447   -0.3931 H   0  0  0  0  0  0  0  0  0  0  0  0
    1.5458   -2.4734   -0.6880 H   0  0  0  0  0  0  0  0  0  0  0  0
    3.3129   -0.0426    0.6652 H   0  0  0  0  0  0  0  0  0  0  0  0
    0.7729    1.9155   -2.2167 H   0  0  0  0  0  0  0  0  0  0  0  0
    0.0465    2.1081    2.1707 H   0  0  0  0  0  0  0  0  0  0  0  0
   -2.3674   -2.0810   -1.0291 H   0  0  0  0  0  0  0  0  0  0  0  0
  1  2  1  0  0  0  0
  2  3  1  0  0  0  0
  2  4  1  0  0  0  0
  4  5  1  0  0  0  0
  4  6  1  0  0  0  0
  6  7  1  0  0  0  0
  6  8  1  0  0  0  0
  8  9  1  0  0  0  0
  8 10  1  0  0  0  0
 10 11  1  0  0  0  0
  2 12  1  0  0  0  0
 10 12  1  0  0  0  0
 10 13  1  0  0  0  0
  8 14  1  0  0  0  0
  6 15  1  0  0  0  0
  4 16  1  0  0  0  0
  1 17  1  0  0  0  0
  1 18  1  0  0  0  0
  1 19  1  0  0  0  0
 13 20  1  0  0  0  0
 14 21  1  0  0  0  0
 15 22  1  0  0  0  0
 16 23  1  0  0  0  0
 17 24  1  0  0  0  0
M  END
