 xtb: 6.7.1 (edcfbbe)
          04032522143D

 12 11  0     0  0            999 V2000
   -2.5051    0.0779   -0.0096 C   0  0  0  0  0  0  0  0  0  0  0  0
   -1.0981   -0.5090   -0.0251 C   0  0  0  0  0  0  0  0  0  0  0  0
   -0.0517    0.5898    0.0620 C   0  0  0  0  0  0  0  0  0  0  0  0
    1.6567   -0.0603   -0.0454 S   0  0  0  0  0  0  0  0  0  0  0  0
   -3.2431   -0.7174   -0.0666 H   0  0  0  0  0  0  0  0  0  0  0  0
   -2.6731    0.6411    0.9055 H   0  0  0  0  0  0  0  0  0  0  0  0
   -2.6501    0.7453   -0.8558 H   0  0  0  0  0  0  0  0  0  0  0  0
   -0.9431   -1.0783   -0.9440 H   0  0  0  0  0  0  0  0  0  0  0  0
   -0.9771   -1.1933    0.8174 H   0  0  0  0  0  0  0  0  0  0  0  0
   -0.1345    1.2768   -0.7802 H   0  0  0  0  0  0  0  0  0  0  0  0
   -0.1342    1.1540    0.9903 H   0  0  0  0  0  0  0  0  0  0  0  0
    1.6034   -0.8024    1.0539 H   0  0  0  0  0  0  0  0  0  0  0  0
  1  2  1  0  0  0  0
  2  3  1  0  0  0  0
  3  4  1  0  0  0  0
  1  5  1  0  0  0  0
  1  6  1  0  0  0  0
  1  7  1  0  0  0  0
  2  8  1  0  0  0  0
  2  9  1  0  0  0  0
  3 10  1  0  0  0  0
  3 11  1  0  0  0  0
  4 12  1  0  0  0  0
M  END
