 xtb: 6.7.1 (edcfbbe)
          04062518003D

 24 24  0     0  0            999 V2000
   -2.5594   -0.8800    0.2786 C   0  0  0  0  0  0  0  0  0  0  0  0
   -1.1241   -0.4492    0.6128 C   0  0  0  0  0  0  0  0  0  0  0  0
   -1.0111   -0.3995    1.7059 H   0  0  0  0  0  0  0  0  0  0  0  0
   -0.8230    0.9428    0.0392 C   0  0  0  0  0  0  0  0  0  0  0  0
   -1.0681    0.9476   -1.0336 H   0  0  0  0  0  0  0  0  0  0  0  0
    0.6650    1.2842    0.2002 C   0  0  0  0  0  0  0  0  0  0  0  0
    0.8826    1.4152    1.2726 H   0  0  0  0  0  0  0  0  0  0  0  0
    1.5376    0.1431   -0.3282 C   0  0  0  0  0  0  0  0  0  0  0  0
    1.3889    0.0558   -1.4163 H   0  0  0  0  0  0  0  0  0  0  0  0
    1.1043   -1.1741    0.3442 C   0  0  0  0  0  0  0  0  0  0  0  0
    1.2770   -1.0892    1.4309 H   0  0  0  0  0  0  0  0  0  0  0  0
   -0.2519   -1.4298    0.0788 O   0  0  0  0  0  0  0  0  0  0  0  0
    1.8597   -2.2464   -0.0919 O   0  0  0  0  0  0  0  0  0  0  0  0
    2.8799    0.4444   -0.0378 O   0  0  0  0  0  0  0  0  0  0  0  0
    0.9007    2.4870   -0.4902 O   0  0  0  0  0  0  0  0  0  0  0  0
   -1.6250    1.8637    0.7320 O   0  0  0  0  0  0  0  0  0  0  0  0
   -2.7761   -1.0074   -1.1011 O   0  0  0  0  0  0  0  0  0  0  0  0
   -3.2391   -0.1042    0.6334 H   0  0  0  0  0  0  0  0  0  0  0  0
   -2.7725   -1.8228    0.7952 H   0  0  0  0  0  0  0  0  0  0  0  0
    1.5231   -2.5550   -0.9480 H   0  0  0  0  0  0  0  0  0  0  0  0
    3.4181   -0.3520   -0.1644 H   0  0  0  0  0  0  0  0  0  0  0  0
    1.8485    2.6827   -0.4558 H   0  0  0  0  0  0  0  0  0  0  0  0
   -1.4230    2.7514    0.3994 H   0  0  0  0  0  0  0  0  0  0  0  0
   -2.2029   -1.7118   -1.4359 H   0  0  0  0  0  0  0  0  0  0  0  0
  1  2  1  0  0  0  0
  2  3  1  0  0  0  0
  2  4  1  0  0  0  0
  4  5  1  0  0  0  0
  4  6  1  0  0  0  0
  6  7  1  0  0  0  0
  6  8  1  0  0  0  0
  8  9  1  0  0  0  0
  8 10  1  0  0  0  0
 10 11  1  0  0  0  0
  2 12  1  0  0  0  0
 10 12  1  0  0  0  0
 10 13  1  0  0  0  0
  8 14  1  0  0  0  0
  6 15  1  0  0  0  0
  4 16  1  0  0  0  0
  1 17  1  0  0  0  0
  1 18  1  0  0  0  0
  1 19  1  0  0  0  0
 13 20  1  0  0  0  0
 14 21  1  0  0  0  0
 15 22  1  0  0  0  0
 16 23  1  0  0  0  0
 17 24  1  0  0  0  0
M  END
