 xtb: 6.7.1 (edcfbbe)
          04062518003D

 24 24  0     0  0            999 V2000
   -2.2116   -1.2057    0.0854 C   0  0  0  0  0  0  0  0  0  0  0  0
   -0.8566   -0.5715    0.4203 C   0  0  0  0  0  0  0  0  0  0  0  0
   -0.8334   -0.3094    1.4878 H   0  0  0  0  0  0  0  0  0  0  0  0
   -0.6008    0.7063   -0.3902 C   0  0  0  0  0  0  0  0  0  0  0  0
   -0.6599    0.4583   -1.4645 H   0  0  0  0  0  0  0  0  0  0  0  0
    0.8091    1.2727   -0.1035 C   0  0  0  0  0  0  0  0  0  0  0  0
    0.6951    2.0775    0.6301 H   0  0  0  0  0  0  0  0  0  0  0  0
    1.7400    0.2010    0.4982 C   0  0  0  0  0  0  0  0  0  0  0  0
    2.7687    0.4739    0.2260 H   0  0  0  0  0  0  0  0  0  0  0  0
    1.4122   -1.1535   -0.1491 C   0  0  0  0  0  0  0  0  0  0  0  0
    2.0681   -1.9438    0.2496 H   0  0  0  0  0  0  0  0  0  0  0  0
    0.1111   -1.5846    0.1559 O   0  0  0  0  0  0  0  0  0  0  0  0
    1.6016   -1.0097   -1.5253 O   0  0  0  0  0  0  0  0  0  0  0  0
    1.5696    0.1694    1.8896 O   0  0  0  0  0  0  0  0  0  0  0  0
    1.3861    1.8588   -1.2382 O   0  0  0  0  0  0  0  0  0  0  0  0
   -1.5346    1.7115   -0.0844 O   0  0  0  0  0  0  0  0  0  0  0  0
   -3.2460   -0.3714    0.5538 O   0  0  0  0  0  0  0  0  0  0  0  0
   -2.2393   -2.1883    0.5691 H   0  0  0  0  0  0  0  0  0  0  0  0
   -2.2810   -1.3431   -1.0014 H   0  0  0  0  0  0  0  0  0  0  0  0
    1.4591   -1.8592   -1.9711 H   0  0  0  0  0  0  0  0  0  0  0  0
    2.2675   -0.3615    2.3011 H   0  0  0  0  0  0  0  0  0  0  0  0
    1.5496    1.1624   -1.8954 H   0  0  0  0  0  0  0  0  0  0  0  0
   -2.3969    1.2964    0.0986 H   0  0  0  0  0  0  0  0  0  0  0  0
   -4.1001   -0.8047    0.4135 H   0  0  0  0  0  0  0  0  0  0  0  0
  1  2  1  0  0  0  0
  2  3  1  0  0  0  0
  2  4  1  0  0  0  0
  4  5  1  0  0  0  0
  4  6  1  0  0  0  0
  6  7  1  0  0  0  0
  6  8  1  0  0  0  0
  8  9  1  0  0  0  0
  8 10  1  0  0  0  0
 10 11  1  0  0  0  0
  2 12  1  0  0  0  0
 10 12  1  0  0  0  0
 10 13  1  0  0  0  0
  8 14  1  0  0  0  0
  6 15  1  0  0  0  0
  4 16  1  0  0  0  0
  1 17  1  0  0  0  0
  1 18  1  0  0  0  0
  1 19  1  0  0  0  0
 13 20  1  0  0  0  0
 14 21  1  0  0  0  0
 15 22  1  0  0  0  0
 16 23  1  0  0  0  0
 17 24  1  0  0  0  0
M  END
