 xtb: 6.7.1 (edcfbbe)
          04062518003D

 24 24  0     0  0            999 V2000
   -2.5438   -0.9280    0.2786 C   0  0  0  0  0  0  0  0  0  0  0  0
   -1.1241   -0.4695    0.6180 C   0  0  0  0  0  0  0  0  0  0  0  0
   -1.0337   -0.3817    1.7130 H   0  0  0  0  0  0  0  0  0  0  0  0
   -0.8297    0.9045    0.0026 C   0  0  0  0  0  0  0  0  0  0  0  0
   -1.0463    0.8507   -1.0751 H   0  0  0  0  0  0  0  0  0  0  0  0
    0.6503    1.2692    0.2110 C   0  0  0  0  0  0  0  0  0  0  0  0
    0.8211    1.4050    1.2875 H   0  0  0  0  0  0  0  0  0  0  0  0
    1.5488    0.1399   -0.3112 C   0  0  0  0  0  0  0  0  0  0  0  0
    1.3980    0.0052   -1.3884 H   0  0  0  0  0  0  0  0  0  0  0  0
    1.1286   -1.1755    0.3767 C   0  0  0  0  0  0  0  0  0  0  0  0
    1.2937   -1.0759    1.4748 H   0  0  0  0  0  0  0  0  0  0  0  0
   -0.2298   -1.4550    0.1434 O   0  0  0  0  0  0  0  0  0  0  0  0
    1.8727   -2.2173   -0.1374 O   0  0  0  0  0  0  0  0  0  0  0  0
    2.9105    0.4227   -0.1596 O   0  0  0  0  0  0  0  0  0  0  0  0
    0.9458    2.5181   -0.3640 O   0  0  0  0  0  0  0  0  0  0  0  0
   -1.6657    1.8457    0.6286 O   0  0  0  0  0  0  0  0  0  0  0  0
   -2.7146   -0.9193   -1.1186 O   0  0  0  0  0  0  0  0  0  0  0  0
   -3.2385   -0.2321    0.7634 H   0  0  0  0  0  0  0  0  0  0  0  0
   -2.6787   -1.9379    0.6819 H   0  0  0  0  0  0  0  0  0  0  0  0
    1.3976   -3.0508    0.0089 H   0  0  0  0  0  0  0  0  0  0  0  0
    3.1346    0.5150    0.7779 H   0  0  0  0  0  0  0  0  0  0  0  0
    1.0828    2.4203   -1.3172 H   0  0  0  0  0  0  0  0  0  0  0  0
   -1.3539    2.7328    0.3877 H   0  0  0  0  0  0  0  0  0  0  0  0
   -3.5980   -1.2528   -1.3294 H   0  0  0  0  0  0  0  0  0  0  0  0
  1  2  1  0  0  0  0
  2  3  1  0  0  0  0
  2  4  1  0  0  0  0
  4  5  1  0  0  0  0
  4  6  1  0  0  0  0
  6  7  1  0  0  0  0
  6  8  1  0  0  0  0
  8  9  1  0  0  0  0
  8 10  1  0  0  0  0
 10 11  1  0  0  0  0
  2 12  1  0  0  0  0
 10 12  1  0  0  0  0
 10 13  1  0  0  0  0
  8 14  1  0  0  0  0
  6 15  1  0  0  0  0
  4 16  1  0  0  0  0
  1 17  1  0  0  0  0
  1 18  1  0  0  0  0
  1 19  1  0  0  0  0
 13 20  1  0  0  0  0
 14 21  1  0  0  0  0
 15 22  1  0  0  0  0
 16 23  1  0  0  0  0
 17 24  1  0  0  0  0
M  END
