 xtb: 6.7.1 (edcfbbe)
          04062518003D

 24 24  0     0  0            999 V2000
   -1.7961   -1.3959   -0.4236 C   0  0  0  0  0  0  0  0  0  0  0  0
   -1.1062   -0.4887    0.6140 C   0  0  0  0  0  0  0  0  0  0  0  0
   -1.7674   -0.3491    1.4776 H   0  0  0  0  0  0  0  0  0  0  0  0
   -0.8243    0.9119    0.0308 C   0  0  0  0  0  0  0  0  0  0  0  0
   -1.0251    0.9009   -1.0476 H   0  0  0  0  0  0  0  0  0  0  0  0
    0.6575    1.2629    0.2406 C   0  0  0  0  0  0  0  0  0  0  0  0
    0.8616    1.3266    1.3181 H   0  0  0  0  0  0  0  0  0  0  0  0
    1.5082    0.1375   -0.3554 C   0  0  0  0  0  0  0  0  0  0  0  0
    1.2536    0.0241   -1.4201 H   0  0  0  0  0  0  0  0  0  0  0  0
    1.1933   -1.1833    0.3645 C   0  0  0  0  0  0  0  0  0  0  0  0
    2.0086   -1.3764    1.0766 H   0  0  0  0  0  0  0  0  0  0  0  0
    0.0449   -1.1075    1.1741 O   0  0  0  0  0  0  0  0  0  0  0  0
    1.1073   -2.1930   -0.5898 O   0  0  0  0  0  0  0  0  0  0  0  0
    2.8794    0.3918   -0.2080 O   0  0  0  0  0  0  0  0  0  0  0  0
    1.0220    2.4569   -0.4125 O   0  0  0  0  0  0  0  0  0  0  0  0
   -1.6716    1.8356    0.6805 O   0  0  0  0  0  0  0  0  0  0  0  0
   -2.9541   -0.8096   -0.9582 O   0  0  0  0  0  0  0  0  0  0  0  0
   -2.0170   -2.3620    0.0456 H   0  0  0  0  0  0  0  0  0  0  0  0
   -1.1215   -1.5635   -1.2664 H   0  0  0  0  0  0  0  0  0  0  0  0
    1.1325   -3.0634   -0.1636 H   0  0  0  0  0  0  0  0  0  0  0  0
    3.0599    1.2751   -0.5691 H   0  0  0  0  0  0  0  0  0  0  0  0
    0.6895    3.2142    0.0889 H   0  0  0  0  0  0  0  0  0  0  0  0
   -1.8665    2.5768    0.0912 H   0  0  0  0  0  0  0  0  0  0  0  0
   -3.6204   -0.7155   -0.2624 H   0  0  0  0  0  0  0  0  0  0  0  0
  1  2  1  0  0  0  0
  2  3  1  0  0  0  0
  2  4  1  0  0  0  0
  4  5  1  0  0  0  0
  4  6  1  0  0  0  0
  6  7  1  0  0  0  0
  6  8  1  0  0  0  0
  8  9  1  0  0  0  0
  8 10  1  0  0  0  0
 10 11  1  0  0  0  0
  2 12  1  0  0  0  0
 10 12  1  0  0  0  0
 10 13  1  0  0  0  0
  8 14  1  0  0  0  0
  6 15  1  0  0  0  0
  4 16  1  0  0  0  0
  1 17  1  0  0  0  0
  1 18  1  0  0  0  0
  1 19  1  0  0  0  0
 13 20  1  0  0  0  0
 14 21  1  0  0  0  0
 15 22  1  0  0  0  0
 16 23  1  0  0  0  0
 17 24  1  0  0  0  0
M  END
