 xtb: 6.7.1 (edcfbbe)
          04032522143D

 12 11  0     0  0            999 V2000
   -2.1789    0.2737    0.1235 C   0  0  0  0  0  0  0  0  0  0  0  0
   -0.9218   -0.3995   -0.3906 C   0  0  0  0  0  0  0  0  0  0  0  0
    0.5647    0.3716    0.3588 S   0  0  0  0  0  0  0  0  0  0  0  0
    1.8392   -0.6270   -0.4653 C   0  0  0  0  0  0  0  0  0  0  0  0
   -3.0543   -0.1881   -0.3263 H   0  0  0  0  0  0  0  0  0  0  0  0
   -2.2440    0.1768    1.2046 H   0  0  0  0  0  0  0  0  0  0  0  0
   -2.1695    1.3320   -0.1262 H   0  0  0  0  0  0  0  0  0  0  0  0
   -0.8288   -0.2900   -1.4714 H   0  0  0  0  0  0  0  0  0  0  0  0
   -0.9028   -1.4569   -0.1248 H   0  0  0  0  0  0  0  0  0  0  0  0
    2.7960   -0.2677   -0.1029 H   0  0  0  0  0  0  0  0  0  0  0  0
    1.7668   -0.4858   -1.5395 H   0  0  0  0  0  0  0  0  0  0  0  0
    1.7043   -1.6714   -0.2004 H   0  0  0  0  0  0  0  0  0  0  0  0
  1  2  1  0  0  0  0
  2  3  1  0  0  0  0
  3  4  1  0  0  0  0
  1  5  1  0  0  0  0
  1  6  1  0  0  0  0
  1  7  1  0  0  0  0
  2  8  1  0  0  0  0
  2  9  1  0  0  0  0
  4 10  1  0  0  0  0
  4 11  1  0  0  0  0
  4 12  1  0  0  0  0
M  END
