 xtb: 6.7.1 (edcfbbe)
          04052502593D

 19 19  0     0  0            999 V2000
   -2.8813   -0.0520    0.0102 C   0  0  0  0  0  0  0  0  0  0  0  0
   -1.7821    0.9992   -0.0722 C   0  0  0  0  0  0  0  0  0  0  0  0
   -0.3457    0.5278   -0.0419 C   0  0  0  0  0  0  0  0  0  0  0  0
    0.6291    1.5176   -0.1332 C   0  0  0  0  0  0  0  0  0  0  0  0
    1.9813    1.2358   -0.1172 C   0  0  0  0  0  0  0  0  0  0  0  0
    2.3961   -0.0793   -0.0067 C   0  0  0  0  0  0  0  0  0  0  0  0
    1.4516   -1.0815    0.0854 C   0  0  0  0  0  0  0  0  0  0  0  0
    0.0870   -0.7980    0.0697 C   0  0  0  0  0  0  0  0  0  0  0  0
   -0.8109   -1.8189    0.1636 O   0  0  0  0  0  0  0  0  0  0  0  0
   -2.8159   -0.6136    0.9375 H   0  0  0  0  0  0  0  0  0  0  0  0
   -2.8164   -0.7506   -0.8190 H   0  0  0  0  0  0  0  0  0  0  0  0
   -3.8509    0.4410   -0.0280 H   0  0  0  0  0  0  0  0  0  0  0  0
   -1.9106    1.7028    0.7567 H   0  0  0  0  0  0  0  0  0  0  0  0
   -1.9167    1.5713   -0.9959 H   0  0  0  0  0  0  0  0  0  0  0  0
    0.3034    2.5445   -0.2195 H   0  0  0  0  0  0  0  0  0  0  0  0
    2.7031    2.0345   -0.1902 H   0  0  0  0  0  0  0  0  0  0  0  0
    3.4466   -0.3262    0.0083 H   0  0  0  0  0  0  0  0  0  0  0  0
    1.7701   -2.1114    0.1721 H   0  0  0  0  0  0  0  0  0  0  0  0
   -0.3446   -2.6650    0.2355 H   0  0  0  0  0  0  0  0  0  0  0  0
  1  2  1  0  0  0  0
  2  3  1  0  0  0  0
  3  4  4  0  0  0  0
  4  5  4  0  0  0  0
  5  6  4  0  0  0  0
  6  7  4  0  0  0  0
  3  8  4  0  0  0  0
  7  8  4  0  0  0  0
  8  9  1  0  0  0  0
  1 10  1  0  0  0  0
  1 11  1  0  0  0  0
  1 12  1  0  0  0  0
  2 13  1  0  0  0  0
  2 14  1  0  0  0  0
  4 15  1  0  0  0  0
  5 16  1  0  0  0  0
  6 17  1  0  0  0  0
  7 18  1  0  0  0  0
  9 19  1  0  0  0  0
M  END
