 xtb: 6.7.1 (edcfbbe)
          04032521373D

 12 11  0     0  0            999 V2000
   -1.2631   -0.7264   -0.1055 C   0  0  0  0  0  0  0  0  0  0  0  0
   -0.0001   -0.0030    0.3623 C   0  0  0  0  0  0  0  0  0  0  0  0
    1.2580   -0.7348   -0.1053 C   0  0  0  0  0  0  0  0  0  0  0  0
    0.0046    1.3520   -0.0581 O   0  0  0  0  0  0  0  0  0  0  0  0
   -2.1449   -0.1655    0.1942 H   0  0  0  0  0  0  0  0  0  0  0  0
   -1.2627   -0.8270   -1.1888 H   0  0  0  0  0  0  0  0  0  0  0  0
   -1.3087   -1.7167    0.3372 H   0  0  0  0  0  0  0  0  0  0  0  0
   -0.0002    0.0603    1.4566 H   0  0  0  0  0  0  0  0  0  0  0  0
    2.1440   -0.1855    0.2033 H   0  0  0  0  0  0  0  0  0  0  0  0
    1.2617   -0.8259   -1.1896 H   0  0  0  0  0  0  0  0  0  0  0  0
    1.2916   -1.7293    0.3292 H   0  0  0  0  0  0  0  0  0  0  0  0
    0.0081    1.3752   -1.0257 H   0  0  0  0  0  0  0  0  0  0  0  0
  1  2  1  0  0  0  0
  2  3  1  0  0  0  0
  2  4  1  0  0  0  0
  1  5  1  0  0  0  0
  1  6  1  0  0  0  0
  1  7  1  0  0  0  0
  2  8  1  0  0  0  0
  3  9  1  0  0  0  0
  3 10  1  0  0  0  0
  3 11  1  0  0  0  0
  4 12  1  0  0  0  0
M  END
