 xtb: 6.7.1 (edcfbbe)
          04062518003D

 24 24  0     0  0            999 V2000
   -2.5404   -0.9107    0.2779 C   0  0  0  0  0  0  0  0  0  0  0  0
   -1.1172   -0.4723    0.6318 C   0  0  0  0  0  0  0  0  0  0  0  0
   -1.0190   -0.4316    1.7294 H   0  0  0  0  0  0  0  0  0  0  0  0
   -0.8284    0.9318    0.0555 C   0  0  0  0  0  0  0  0  0  0  0  0
   -1.0782    0.9313   -1.0105 H   0  0  0  0  0  0  0  0  0  0  0  0
    0.6565    1.2773    0.2191 C   0  0  0  0  0  0  0  0  0  0  0  0
    0.8873    1.3809    1.2947 H   0  0  0  0  0  0  0  0  0  0  0  0
    1.5222    0.1420   -0.3355 C   0  0  0  0  0  0  0  0  0  0  0  0
    1.3439    0.0558   -1.4184 H   0  0  0  0  0  0  0  0  0  0  0  0
    1.1204   -1.1828    0.3408 C   0  0  0  0  0  0  0  0  0  0  0  0
    1.3382   -1.1073    1.4221 H   0  0  0  0  0  0  0  0  0  0  0  0
   -0.2371   -1.4545    0.1222 O   0  0  0  0  0  0  0  0  0  0  0  0
    1.8613   -2.2464   -0.1448 O   0  0  0  0  0  0  0  0  0  0  0  0
    2.8685    0.4553   -0.0763 O   0  0  0  0  0  0  0  0  0  0  0  0
    0.9142    2.4899   -0.4404 O   0  0  0  0  0  0  0  0  0  0  0  0
   -1.6682    1.8878    0.6441 O   0  0  0  0  0  0  0  0  0  0  0  0
   -2.6787   -0.9319   -1.1228 O   0  0  0  0  0  0  0  0  0  0  0  0
   -3.2328   -0.1910    0.7299 H   0  0  0  0  0  0  0  0  0  0  0  0
   -2.7061   -1.9093    0.6989 H   0  0  0  0  0  0  0  0  0  0  0  0
    1.4126   -2.6077   -0.9261 H   0  0  0  0  0  0  0  0  0  0  0  0
    3.4150   -0.3227   -0.2652 H   0  0  0  0  0  0  0  0  0  0  0  0
    1.8723    2.6381   -0.4420 H   0  0  0  0  0  0  0  0  0  0  0  0
   -1.3305    2.1341    1.5177 H   0  0  0  0  0  0  0  0  0  0  0  0
   -3.5842   -1.1894   -1.3459 H   0  0  0  0  0  0  0  0  0  0  0  0
  1  2  1  0  0  0  0
  2  3  1  0  0  0  0
  2  4  1  0  0  0  0
  4  5  1  0  0  0  0
  4  6  1  0  0  0  0
  6  7  1  0  0  0  0
  6  8  1  0  0  0  0
  8  9  1  0  0  0  0
  8 10  1  0  0  0  0
 10 11  1  0  0  0  0
  2 12  1  0  0  0  0
 10 12  1  0  0  0  0
 10 13  1  0  0  0  0
  8 14  1  0  0  0  0
  6 15  1  0  0  0  0
  4 16  1  0  0  0  0
  1 17  1  0  0  0  0
  1 18  1  0  0  0  0
  1 19  1  0  0  0  0
 13 20  1  0  0  0  0
 14 21  1  0  0  0  0
 15 22  1  0  0  0  0
 16 23  1  0  0  0  0
 17 24  1  0  0  0  0
M  END
