 xtb: 6.7.1 (edcfbbe)
          04032522143D

 12 11  0     0  0            999 V2000
   -1.9195   -0.2307    0.5348 C   0  0  0  0  0  0  0  0  0  0  0  0
   -1.1882   -0.0612   -0.7905 C   0  0  0  0  0  0  0  0  0  0  0  0
    0.1121    0.7124   -0.6367 C   0  0  0  0  0  0  0  0  0  0  0  0
    1.3454   -0.1565    0.4040 S   0  0  0  0  0  0  0  0  0  0  0  0
   -1.2863   -0.7483    1.2525 H   0  0  0  0  0  0  0  0  0  0  0  0
   -2.1849    0.7391    0.9502 H   0  0  0  0  0  0  0  0  0  0  0  0
   -2.8289   -0.8089    0.3960 H   0  0  0  0  0  0  0  0  0  0  0  0
   -1.8211    0.4861   -1.4929 H   0  0  0  0  0  0  0  0  0  0  0  0
   -0.9780   -1.0425   -1.2218 H   0  0  0  0  0  0  0  0  0  0  0  0
    0.5814    0.9051   -1.6006 H   0  0  0  0  0  0  0  0  0  0  0  0
   -0.0545    1.6597   -0.1241 H   0  0  0  0  0  0  0  0  0  0  0  0
    1.4694   -1.2228   -0.3775 H   0  0  0  0  0  0  0  0  0  0  0  0
  1  2  1  0  0  0  0
  2  3  1  0  0  0  0
  3  4  1  0  0  0  0
  1  5  1  0  0  0  0
  1  6  1  0  0  0  0
  1  7  1  0  0  0  0
  2  8  1  0  0  0  0
  2  9  1  0  0  0  0
  3 10  1  0  0  0  0
  3 11  1  0  0  0  0
  4 12  1  0  0  0  0
M  END
