 xtb: 6.7.1 (edcfbbe)
          04062518003D

 24 24  0     0  0            999 V2000
   -2.2832   -1.1085   -0.0838 C   0  0  0  0  0  0  0  0  0  0  0  0
   -0.9021   -0.5521    0.2916 C   0  0  0  0  0  0  0  0  0  0  0  0
   -0.7530   -0.5961    1.3807 H   0  0  0  0  0  0  0  0  0  0  0  0
   -0.7392    0.9164   -0.1356 C   0  0  0  0  0  0  0  0  0  0  0  0
   -1.2614    1.0716   -1.0897 H   0  0  0  0  0  0  0  0  0  0  0  0
    0.7604    1.2499   -0.3657 C   0  0  0  0  0  0  0  0  0  0  0  0
    0.9294    2.2802   -0.0282 H   0  0  0  0  0  0  0  0  0  0  0  0
    1.6654    0.3028    0.4414 C   0  0  0  0  0  0  0  0  0  0  0  0
    2.7132    0.5062    0.1744 H   0  0  0  0  0  0  0  0  0  0  0  0
    1.3878   -1.1524    0.0226 C   0  0  0  0  0  0  0  0  0  0  0  0
    1.6265   -1.7997    0.8887 H   0  0  0  0  0  0  0  0  0  0  0  0
    0.0455   -1.3764   -0.3594 O   0  0  0  0  0  0  0  0  0  0  0  0
    2.1858   -1.4467   -1.0709 O   0  0  0  0  0  0  0  0  0  0  0  0
    1.4674    0.3936    1.8273 O   0  0  0  0  0  0  0  0  0  0  0  0
    1.1034    1.2377   -1.7278 O   0  0  0  0  0  0  0  0  0  0  0  0
   -1.2997    1.7077    0.8825 O   0  0  0  0  0  0  0  0  0  0  0  0
   -3.3417   -0.2558    0.2550 O   0  0  0  0  0  0  0  0  0  0  0  0
   -2.4013   -2.0957    0.3815 H   0  0  0  0  0  0  0  0  0  0  0  0
   -2.3222   -1.2311   -1.1689 H   0  0  0  0  0  0  0  0  0  0  0  0
    2.0056   -2.3506   -1.3740 H   0  0  0  0  0  0  0  0  0  0  0  0
    1.7058    1.2795    2.1373 H   0  0  0  0  0  0  0  0  0  0  0  0
    1.2722    0.3259   -2.0125 H   0  0  0  0  0  0  0  0  0  0  0  0
   -1.4613    2.6025    0.5524 H   0  0  0  0  0  0  0  0  0  0  0  0
   -3.2833   -0.0255    1.1934 H   0  0  0  0  0  0  0  0  0  0  0  0
  1  2  1  0  0  0  0
  2  3  1  0  0  0  0
  2  4  1  0  0  0  0
  4  5  1  0  0  0  0
  4  6  1  0  0  0  0
  6  7  1  0  0  0  0
  6  8  1  0  0  0  0
  8  9  1  0  0  0  0
  8 10  1  0  0  0  0
 10 11  1  0  0  0  0
  2 12  1  0  0  0  0
 10 12  1  0  0  0  0
 10 13  1  0  0  0  0
  8 14  1  0  0  0  0
  6 15  1  0  0  0  0
  4 16  1  0  0  0  0
  1 17  1  0  0  0  0
  1 18  1  0  0  0  0
  1 19  1  0  0  0  0
 13 20  1  0  0  0  0
 14 21  1  0  0  0  0
 15 22  1  0  0  0  0
 16 23  1  0  0  0  0
 17 24  1  0  0  0  0
M  END
