 xtb: 6.7.1 (edcfbbe)
          04042517583D

 13 12  0     0  0            999 V2000
   -1.9487   -0.1418    0.0001 C   0  0  0  0  0  0  0  0  0  0  0  0
   -0.5810    0.5290    0.0000 C   0  0  0  0  0  0  0  0  0  0  0  0
    0.5572   -0.5007   -0.0003 C   0  0  0  0  0  0  0  0  0  0  0  0
    1.8980    0.0658   -0.0000 N   0  0  0  0  0  0  0  0  0  0  0  0
   -2.0641   -0.7677   -0.8817 H   0  0  0  0  0  0  0  0  0  0  0  0
   -2.0637   -0.7681    0.8818 H   0  0  0  0  0  0  0  0  0  0  0  0
   -2.7398    0.6040    0.0004 H   0  0  0  0  0  0  0  0  0  0  0  0
   -0.4863    1.1670    0.8832 H   0  0  0  0  0  0  0  0  0  0  0  0
   -0.4865    1.1666   -0.8834 H   0  0  0  0  0  0  0  0  0  0  0  0
    0.4695   -1.1391    0.8835 H   0  0  0  0  0  0  0  0  0  0  0  0
    0.4697   -1.1384   -0.8846 H   0  0  0  0  0  0  0  0  0  0  0  0
    2.0166    0.6546    0.8181 H   0  0  0  0  0  0  0  0  0  0  0  0
    2.0149    0.6590   -0.8152 H   0  0  0  0  0  0  0  0  0  0  0  0
  1  2  1  0  0  0  0
  2  3  1  0  0  0  0
  3  4  1  0  0  0  0
  1  5  1  0  0  0  0
  1  6  1  0  0  0  0
  1  7  1  0  0  0  0
  2  8  1  0  0  0  0
  2  9  1  0  0  0  0
  3 10  1  0  0  0  0
  3 11  1  0  0  0  0
  4 12  1  0  0  0  0
  4 13  1  0  0  0  0
M  END
