 xtb: 6.7.1 (edcfbbe)
          04062518003D

 24 24  0     0  0            999 V2000
   -2.5535   -0.8982    0.2916 C   0  0  0  0  0  0  0  0  0  0  0  0
   -1.1218   -0.4493    0.6198 C   0  0  0  0  0  0  0  0  0  0  0  0
   -1.0015   -0.3939    1.7115 H   0  0  0  0  0  0  0  0  0  0  0  0
   -0.8400    0.9418    0.0327 C   0  0  0  0  0  0  0  0  0  0  0  0
   -1.1104    0.9244   -1.0363 H   0  0  0  0  0  0  0  0  0  0  0  0
    0.6485    1.2879    0.1804 C   0  0  0  0  0  0  0  0  0  0  0  0
    0.8665    1.4504    1.2428 H   0  0  0  0  0  0  0  0  0  0  0  0
    1.5402    0.1486   -0.3327 C   0  0  0  0  0  0  0  0  0  0  0  0
    1.3966    0.0360   -1.4216 H   0  0  0  0  0  0  0  0  0  0  0  0
    1.1203   -1.1698    0.3459 C   0  0  0  0  0  0  0  0  0  0  0  0
    1.2889   -1.0802    1.4307 H   0  0  0  0  0  0  0  0  0  0  0  0
   -0.2448   -1.4190    0.0779 O   0  0  0  0  0  0  0  0  0  0  0  0
    1.8493   -2.2605   -0.0625 O   0  0  0  0  0  0  0  0  0  0  0  0
    2.8924    0.3887   -0.0450 O   0  0  0  0  0  0  0  0  0  0  0  0
    0.9651    2.5068   -0.4508 O   0  0  0  0  0  0  0  0  0  0  0  0
   -1.6435    1.8647    0.7237 O   0  0  0  0  0  0  0  0  0  0  0  0
   -2.7543   -1.0612   -1.0872 O   0  0  0  0  0  0  0  0  0  0  0  0
   -3.2426   -0.1197    0.6217 H   0  0  0  0  0  0  0  0  0  0  0  0
   -2.7631   -1.8295    0.8294 H   0  0  0  0  0  0  0  0  0  0  0  0
    1.7292   -2.4097   -1.0140 H   0  0  0  0  0  0  0  0  0  0  0  0
    3.0860    1.3240   -0.2211 H   0  0  0  0  0  0  0  0  0  0  0  0
    0.7663    2.4491   -1.3981 H   0  0  0  0  0  0  0  0  0  0  0  0
   -1.3630    2.7627    0.4875 H   0  0  0  0  0  0  0  0  0  0  0  0
   -2.1692   -1.7685   -1.3952 H   0  0  0  0  0  0  0  0  0  0  0  0
  1  2  1  0  0  0  0
  2  3  1  0  0  0  0
  2  4  1  0  0  0  0
  4  5  1  0  0  0  0
  4  6  1  0  0  0  0
  6  7  1  0  0  0  0
  6  8  1  0  0  0  0
  8  9  1  0  0  0  0
  8 10  1  0  0  0  0
 10 11  1  0  0  0  0
  2 12  1  0  0  0  0
 10 12  1  0  0  0  0
 10 13  1  0  0  0  0
  8 14  1  0  0  0  0
  6 15  1  0  0  0  0
  4 16  1  0  0  0  0
  1 17  1  0  0  0  0
  1 18  1  0  0  0  0
  1 19  1  0  0  0  0
 13 20  1  0  0  0  0
 14 21  1  0  0  0  0
 15 22  1  0  0  0  0
 16 23  1  0  0  0  0
 17 24  1  0  0  0  0
M  END
