 xtb: 6.7.1 (edcfbbe)
          04052503093D

 20 20  0     0  0            999 V2000
   -3.6461    0.0406    0.0095 C   0  0  0  0  0  0  0  0  0  0  0  0
   -2.1520    0.0146   -0.0071 C   0  0  0  0  0  0  0  0  0  0  0  0
   -1.4251    1.2032   -0.0077 C   0  0  0  0  0  0  0  0  0  0  0  0
   -0.0457    1.1991   -0.0044 C   0  0  0  0  0  0  0  0  0  0  0  0
    0.6545   -0.0097   -0.0007 C   0  0  0  0  0  0  0  0  0  0  0  0
   -0.0752   -1.2015    0.0002 C   0  0  0  0  0  0  0  0  0  0  0  0
   -1.4539   -1.1891   -0.0028 C   0  0  0  0  0  0  0  0  0  0  0  0
    2.1275   -0.0912    0.0012 C   0  0  0  0  0  0  0  0  0  0  0  0
    2.7043   -1.1717   -0.0016 O   0  0  0  0  0  0  0  0  0  0  0  0
    2.9010    1.1987    0.0073 C   0  0  0  0  0  0  0  0  0  0  0  0
   -4.0241    0.8327   -0.6321 H   0  0  0  0  0  0  0  0  0  0  0  0
   -4.0557   -0.9114   -0.3163 H   0  0  0  0  0  0  0  0  0  0  0  0
   -3.9974    0.2351    1.0224 H   0  0  0  0  0  0  0  0  0  0  0  0
   -1.9547    2.1443   -0.0116 H   0  0  0  0  0  0  0  0  0  0  0  0
    0.4824    2.1384   -0.0064 H   0  0  0  0  0  0  0  0  0  0  0  0
    0.4718   -2.1333    0.0023 H   0  0  0  0  0  0  0  0  0  0  0  0
   -1.9969   -2.1225   -0.0028 H   0  0  0  0  0  0  0  0  0  0  0  0
    3.9650    0.9768    0.0119 H   0  0  0  0  0  0  0  0  0  0  0  0
    2.6470    1.7787    0.8907 H   0  0  0  0  0  0  0  0  0  0  0  0
    2.6557    1.7815   -0.8768 H   0  0  0  0  0  0  0  0  0  0  0  0
  1  2  1  0  0  0  0
  2  3  4  0  0  0  0
  3  4  4  0  0  0  0
  4  5  4  0  0  0  0
  5  6  4  0  0  0  0
  2  7  4  0  0  0  0
  6  7  4  0  0  0  0
  5  8  1  0  0  0  0
  8  9  2  0  0  0  0
  8 10  1  0  0  0  0
  1 11  1  0  0  0  0
  1 12  1  0  0  0  0
  1 13  1  0  0  0  0
  3 14  1  0  0  0  0
  4 15  1  0  0  0  0
  6 16  1  0  0  0  0
  7 17  1  0  0  0  0
 10 18  1  0  0  0  0
 10 19  1  0  0  0  0
 10 20  1  0  0  0  0
M  END
