 xtb: 6.7.1 (edcfbbe)
          04062518003D

 24 24  0     0  0            999 V2000
   -2.5599   -0.6719   -0.3375 C   0  0  0  0  0  0  0  0  0  0  0  0
   -1.1713   -0.3138    0.2075 C   0  0  0  0  0  0  0  0  0  0  0  0
   -1.2094   -0.2404    1.3066 H   0  0  0  0  0  0  0  0  0  0  0  0
   -0.6928    1.0358   -0.3450 C   0  0  0  0  0  0  0  0  0  0  0  0
   -0.6890    0.9779   -1.4465 H   0  0  0  0  0  0  0  0  0  0  0  0
    0.7396    1.3251    0.1435 C   0  0  0  0  0  0  0  0  0  0  0  0
    0.7286    1.4555    1.2322 H   0  0  0  0  0  0  0  0  0  0  0  0
    1.6553    0.1477   -0.1988 C   0  0  0  0  0  0  0  0  0  0  0  0
    1.7366    0.0499   -1.2938 H   0  0  0  0  0  0  0  0  0  0  0  0
    1.0283   -1.1576    0.3291 C   0  0  0  0  0  0  0  0  0  0  0  0
    1.0001   -1.1090    1.4395 H   0  0  0  0  0  0  0  0  0  0  0  0
   -0.2741   -1.3414   -0.1653 O   0  0  0  0  0  0  0  0  0  0  0  0
    1.8127   -2.2090   -0.1039 O   0  0  0  0  0  0  0  0  0  0  0  0
    2.9152    0.3664    0.3759 O   0  0  0  0  0  0  0  0  0  0  0  0
    1.1901    2.5533   -0.3675 O   0  0  0  0  0  0  0  0  0  0  0  0
   -1.5765    2.0384    0.0829 O   0  0  0  0  0  0  0  0  0  0  0  0
   -3.1726   -1.7317    0.3466 O   0  0  0  0  0  0  0  0  0  0  0  0
   -2.4488   -1.0077   -1.3700 H   0  0  0  0  0  0  0  0  0  0  0  0
   -3.1758    0.2336   -0.3082 H   0  0  0  0  0  0  0  0  0  0  0  0
    1.3219   -3.0402   -0.0095 H   0  0  0  0  0  0  0  0  0  0  0  0
    3.4716   -0.4112    0.2169 H   0  0  0  0  0  0  0  0  0  0  0  0
    1.4992    2.4443   -1.2785 H   0  0  0  0  0  0  0  0  0  0  0  0
   -1.1341    2.8969   -0.0216 H   0  0  0  0  0  0  0  0  0  0  0  0
   -3.3787   -1.4587    1.2521 H   0  0  0  0  0  0  0  0  0  0  0  0
  1  2  1  0  0  0  0
  2  3  1  0  0  0  0
  2  4  1  0  0  0  0
  4  5  1  0  0  0  0
  4  6  1  0  0  0  0
  6  7  1  0  0  0  0
  6  8  1  0  0  0  0
  8  9  1  0  0  0  0
  8 10  1  0  0  0  0
 10 11  1  0  0  0  0
  2 12  1  0  0  0  0
 10 12  1  0  0  0  0
 10 13  1  0  0  0  0
  8 14  1  0  0  0  0
  6 15  1  0  0  0  0
  4 16  1  0  0  0  0
  1 17  1  0  0  0  0
  1 18  1  0  0  0  0
  1 19  1  0  0  0  0
 13 20  1  0  0  0  0
 14 21  1  0  0  0  0
 15 22  1  0  0  0  0
 16 23  1  0  0  0  0
 17 24  1  0  0  0  0
M  END
