 xtb: 6.7.1 (edcfbbe)
          04062518003D

 24 24  0     0  0            999 V2000
   -1.8268   -0.7376   -1.0272 C   0  0  0  0  0  0  0  0  0  0  0  0
   -1.2670   -0.6261    0.4142 C   0  0  0  0  0  0  0  0  0  0  0  0
   -2.0430   -0.9531    1.1176 H   0  0  0  0  0  0  0  0  0  0  0  0
   -0.8494    0.8042    0.7816 C   0  0  0  0  0  0  0  0  0  0  0  0
   -1.6997    1.4733    0.5953 H   0  0  0  0  0  0  0  0  0  0  0  0
    0.3174    1.2819   -0.0962 C   0  0  0  0  0  0  0  0  0  0  0  0
    0.8770    2.0277    0.4848 H   0  0  0  0  0  0  0  0  0  0  0  0
    1.2913    0.1343   -0.4154 C   0  0  0  0  0  0  0  0  0  0  0  0
    1.0816   -0.2577   -1.4229 H   0  0  0  0  0  0  0  0  0  0  0  0
    1.1145   -1.0272    0.5728 C   0  0  0  0  0  0  0  0  0  0  0  0
    1.3842   -0.6699    1.5855 H   0  0  0  0  0  0  0  0  0  0  0  0
   -0.1968   -1.5482    0.5910 O   0  0  0  0  0  0  0  0  0  0  0  0
    1.9692   -2.0433    0.1678 O   0  0  0  0  0  0  0  0  0  0  0  0
    2.6007    0.6389   -0.3582 O   0  0  0  0  0  0  0  0  0  0  0  0
   -0.2264    1.8510   -1.2617 O   0  0  0  0  0  0  0  0  0  0  0  0
   -0.4373    0.8962    2.1254 O   0  0  0  0  0  0  0  0  0  0  0  0
   -2.6872    0.3126   -1.3802 O   0  0  0  0  0  0  0  0  0  0  0  0
   -2.4114   -1.6577   -1.0971 H   0  0  0  0  0  0  0  0  0  0  0  0
   -0.9902   -0.8119   -1.7286 H   0  0  0  0  0  0  0  0  0  0  0  0
    1.7571   -2.8547    0.6533 H   0  0  0  0  0  0  0  0  0  0  0  0
    3.2239   -0.0980   -0.4485 H   0  0  0  0  0  0  0  0  0  0  0  0
    0.4737    2.2974   -1.7591 H   0  0  0  0  0  0  0  0  0  0  0  0
   -1.1928    0.7414    2.7114 H   0  0  0  0  0  0  0  0  0  0  0  0
   -2.1481    1.0928   -1.5920 H   0  0  0  0  0  0  0  0  0  0  0  0
  1  2  1  0  0  0  0
  2  3  1  0  0  0  0
  2  4  1  0  0  0  0
  4  5  1  0  0  0  0
  4  6  1  0  0  0  0
  6  7  1  0  0  0  0
  6  8  1  0  0  0  0
  8  9  1  0  0  0  0
  8 10  1  0  0  0  0
 10 11  1  0  0  0  0
  2 12  1  0  0  0  0
 10 12  1  0  0  0  0
 10 13  1  0  0  0  0
  8 14  1  0  0  0  0
  6 15  1  0  0  0  0
  4 16  1  0  0  0  0
  1 17  1  0  0  0  0
  1 18  1  0  0  0  0
  1 19  1  0  0  0  0
 13 20  1  0  0  0  0
 14 21  1  0  0  0  0
 15 22  1  0  0  0  0
 16 23  1  0  0  0  0
 17 24  1  0  0  0  0
M  END
