 xtb: 6.7.1 (edcfbbe)
          04062518003D

 24 24  0     0  0            999 V2000
   -2.2301   -0.9988   -0.3858 C   0  0  0  0  0  0  0  0  0  0  0  0
   -1.1627   -0.2143    0.3872 C   0  0  0  0  0  0  0  0  0  0  0  0
   -1.6316    0.2295    1.2741 H   0  0  0  0  0  0  0  0  0  0  0  0
   -0.5748    0.9165   -0.4596 C   0  0  0  0  0  0  0  0  0  0  0  0
   -0.3740    0.5500   -1.4752 H   0  0  0  0  0  0  0  0  0  0  0  0
    0.7618    1.3259    0.1865 C   0  0  0  0  0  0  0  0  0  0  0  0
    0.6081    1.4647    1.2661 H   0  0  0  0  0  0  0  0  0  0  0  0
    1.7484    0.1740   -0.0249 C   0  0  0  0  0  0  0  0  0  0  0  0
    2.1092    0.2229   -1.0629 H   0  0  0  0  0  0  0  0  0  0  0  0
    1.0369   -1.1822    0.1538 C   0  0  0  0  0  0  0  0  0  0  0  0
    1.6849   -1.8102    0.7798 H   0  0  0  0  0  0  0  0  0  0  0  0
   -0.1549   -1.0940    0.8923 O   0  0  0  0  0  0  0  0  0  0  0  0
    0.8366   -1.7358   -1.1100 O   0  0  0  0  0  0  0  0  0  0  0  0
    2.8224    0.2199    0.8768 O   0  0  0  0  0  0  0  0  0  0  0  0
    1.3128    2.4844   -0.3916 O   0  0  0  0  0  0  0  0  0  0  0  0
   -1.5038    1.9720   -0.4806 O   0  0  0  0  0  0  0  0  0  0  0  0
   -2.9244   -1.9007    0.4396 O   0  0  0  0  0  0  0  0  0  0  0  0
   -1.7554   -1.5263   -1.2237 H   0  0  0  0  0  0  0  0  0  0  0  0
   -2.9716   -0.2977   -0.7731 H   0  0  0  0  0  0  0  0  0  0  0  0
    0.6847   -2.6907   -1.0429 H   0  0  0  0  0  0  0  0  0  0  0  0
    3.2912    1.0604    0.7603 H   0  0  0  0  0  0  0  0  0  0  0  0
    0.7861    3.2522   -0.1256 H   0  0  0  0  0  0  0  0  0  0  0  0
   -1.3151    2.5508   -1.2333 H   0  0  0  0  0  0  0  0  0  0  0  0
   -2.2764   -2.3970    0.9612 H   0  0  0  0  0  0  0  0  0  0  0  0
  1  2  1  0  0  0  0
  2  3  1  0  0  0  0
  2  4  1  0  0  0  0
  4  5  1  0  0  0  0
  4  6  1  0  0  0  0
  6  7  1  0  0  0  0
  6  8  1  0  0  0  0
  8  9  1  0  0  0  0
  8 10  1  0  0  0  0
 10 11  1  0  0  0  0
  2 12  1  0  0  0  0
 10 12  1  0  0  0  0
 10 13  1  0  0  0  0
  8 14  1  0  0  0  0
  6 15  1  0  0  0  0
  4 16  1  0  0  0  0
  1 17  1  0  0  0  0
  1 18  1  0  0  0  0
  1 19  1  0  0  0  0
 13 20  1  0  0  0  0
 14 21  1  0  0  0  0
 15 22  1  0  0  0  0
 16 23  1  0  0  0  0
 17 24  1  0  0  0  0
M  END
