 xtb: 6.7.1 (edcfbbe)
          04062518003D

 24 24  0     0  0            999 V2000
   -2.1030   -0.8904   -0.3831 C   0  0  0  0  0  0  0  0  0  0  0  0
   -1.2259   -0.3393    0.7575 C   0  0  0  0  0  0  0  0  0  0  0  0
   -1.8302   -0.3712    1.6714 H   0  0  0  0  0  0  0  0  0  0  0  0
   -0.7967    1.1246    0.5747 C   0  0  0  0  0  0  0  0  0  0  0  0
   -1.6394    1.6730    0.1224 H   0  0  0  0  0  0  0  0  0  0  0  0
    0.4103    1.2979   -0.3679 C   0  0  0  0  0  0  0  0  0  0  0  0
    0.8889    2.2580   -0.1307 H   0  0  0  0  0  0  0  0  0  0  0  0
    1.5144    0.2399   -0.1379 C   0  0  0  0  0  0  0  0  0  0  0  0
    2.0439    0.1197   -1.0952 H   0  0  0  0  0  0  0  0  0  0  0  0
    1.0049   -1.1610    0.2640 C   0  0  0  0  0  0  0  0  0  0  0  0
    1.7757   -1.6284    0.8943 H   0  0  0  0  0  0  0  0  0  0  0  0
   -0.1297   -1.1885    1.0814 O   0  0  0  0  0  0  0  0  0  0  0  0
    0.8243   -1.9203   -0.9064 O   0  0  0  0  0  0  0  0  0  0  0  0
    2.3676    0.7676    0.8475 O   0  0  0  0  0  0  0  0  0  0  0  0
    0.0261    1.4014   -1.7104 O   0  0  0  0  0  0  0  0  0  0  0  0
   -0.5405    1.6163    1.8697 O   0  0  0  0  0  0  0  0  0  0  0  0
   -1.5395   -0.8198   -1.6720 O   0  0  0  0  0  0  0  0  0  0  0  0
   -3.0224   -0.3036   -0.4234 H   0  0  0  0  0  0  0  0  0  0  0  0
   -2.3562   -1.9283   -0.1376 H   0  0  0  0  0  0  0  0  0  0  0  0
    0.7514   -2.8612   -0.6817 H   0  0  0  0  0  0  0  0  0  0  0  0
    3.1726    0.2353    0.9209 H   0  0  0  0  0  0  0  0  0  0  0  0
   -0.5989    0.6744   -1.9287 H   0  0  0  0  0  0  0  0  0  0  0  0
   -0.2189    2.5277    1.8214 H   0  0  0  0  0  0  0  0  0  0  0  0
   -0.7195   -1.3594   -1.6806 H   0  0  0  0  0  0  0  0  0  0  0  0
  1  2  1  0  0  0  0
  2  3  1  0  0  0  0
  2  4  1  0  0  0  0
  4  5  1  0  0  0  0
  4  6  1  0  0  0  0
  6  7  1  0  0  0  0
  6  8  1  0  0  0  0
  8  9  1  0  0  0  0
  8 10  1  0  0  0  0
 10 11  1  0  0  0  0
  2 12  1  0  0  0  0
 10 12  1  0  0  0  0
 10 13  1  0  0  0  0
  8 14  1  0  0  0  0
  6 15  1  0  0  0  0
  4 16  1  0  0  0  0
  1 17  1  0  0  0  0
  1 18  1  0  0  0  0
  1 19  1  0  0  0  0
 13 20  1  0  0  0  0
 14 21  1  0  0  0  0
 15 22  1  0  0  0  0
 16 23  1  0  0  0  0
 17 24  1  0  0  0  0
M  END
