 xtb: 6.7.1 (edcfbbe)
          04062518003D

 24 24  0     0  0            999 V2000
   -1.7447   -1.2788   -0.6235 C   0  0  0  0  0  0  0  0  0  0  0  0
   -1.1491   -0.4870    0.5577 C   0  0  0  0  0  0  0  0  0  0  0  0
   -1.8801   -0.4627    1.3743 H   0  0  0  0  0  0  0  0  0  0  0  0
   -0.8606    0.9794    0.1787 C   0  0  0  0  0  0  0  0  0  0  0  0
   -1.2101    1.1632   -0.8490 H   0  0  0  0  0  0  0  0  0  0  0  0
    0.6458    1.2637    0.2180 C   0  0  0  0  0  0  0  0  0  0  0  0
    0.9685    1.3458    1.2679 H   0  0  0  0  0  0  0  0  0  0  0  0
    1.3908    0.0916   -0.4269 C   0  0  0  0  0  0  0  0  0  0  0  0
    0.9802   -0.0776   -1.4348 H   0  0  0  0  0  0  0  0  0  0  0  0
    1.1843   -1.1600    0.4484 C   0  0  0  0  0  0  0  0  0  0  0  0
    1.9569   -1.1680    1.2293 H   0  0  0  0  0  0  0  0  0  0  0  0
   -0.0367   -1.1514    1.1422 O   0  0  0  0  0  0  0  0  0  0  0  0
    1.3942   -2.3430   -0.2635 O   0  0  0  0  0  0  0  0  0  0  0  0
    2.7500    0.4382   -0.5146 O   0  0  0  0  0  0  0  0  0  0  0  0
    0.8776    2.4703   -0.4620 O   0  0  0  0  0  0  0  0  0  0  0  0
   -1.5651    1.8048    1.0731 O   0  0  0  0  0  0  0  0  0  0  0  0
   -2.9334   -0.7119   -1.1059 O   0  0  0  0  0  0  0  0  0  0  0  0
   -1.8997   -2.3169   -0.3022 H   0  0  0  0  0  0  0  0  0  0  0  0
   -1.0603   -1.2622   -1.4756 H   0  0  0  0  0  0  0  0  0  0  0  0
    0.6801   -2.5074   -0.8966 H   0  0  0  0  0  0  0  0  0  0  0  0
    3.2530   -0.2973   -0.8924 H   0  0  0  0  0  0  0  0  0  0  0  0
    1.8338    2.5687   -0.5881 H   0  0  0  0  0  0  0  0  0  0  0  0
   -1.3819    2.7300    0.8529 H   0  0  0  0  0  0  0  0  0  0  0  0
   -3.6067   -0.7183   -0.4109 H   0  0  0  0  0  0  0  0  0  0  0  0
  1  2  1  0  0  0  0
  2  3  1  0  0  0  0
  2  4  1  0  0  0  0
  4  5  1  0  0  0  0
  4  6  1  0  0  0  0
  6  7  1  0  0  0  0
  6  8  1  0  0  0  0
  8  9  1  0  0  0  0
  8 10  1  0  0  0  0
 10 11  1  0  0  0  0
  2 12  1  0  0  0  0
 10 12  1  0  0  0  0
 10 13  1  0  0  0  0
  8 14  1  0  0  0  0
  6 15  1  0  0  0  0
  4 16  1  0  0  0  0
  1 17  1  0  0  0  0
  1 18  1  0  0  0  0
  1 19  1  0  0  0  0
 13 20  1  0  0  0  0
 14 21  1  0  0  0  0
 15 22  1  0  0  0  0
 16 23  1  0  0  0  0
 17 24  1  0  0  0  0
M  END
