 xtb: 6.7.1 (edcfbbe)
          04062518003D

 24 24  0     0  0            999 V2000
   -2.5443   -0.9172    0.3064 C   0  0  0  0  0  0  0  0  0  0  0  0
   -1.1161   -0.4704    0.6245 C   0  0  0  0  0  0  0  0  0  0  0  0
   -1.0052   -0.3878    1.7177 H   0  0  0  0  0  0  0  0  0  0  0  0
   -0.8219    0.9035    0.0090 C   0  0  0  0  0  0  0  0  0  0  0  0
   -1.0534    0.8503   -1.0665 H   0  0  0  0  0  0  0  0  0  0  0  0
    0.6608    1.2752    0.1895 C   0  0  0  0  0  0  0  0  0  0  0  0
    0.8649    1.4318    1.2556 H   0  0  0  0  0  0  0  0  0  0  0  0
    1.5501    0.1388   -0.3174 C   0  0  0  0  0  0  0  0  0  0  0  0
    1.4019    0.0092   -1.4019 H   0  0  0  0  0  0  0  0  0  0  0  0
    1.1212   -1.1752    0.3608 C   0  0  0  0  0  0  0  0  0  0  0  0
    1.2972   -1.0802    1.4549 H   0  0  0  0  0  0  0  0  0  0  0  0
   -0.2349   -1.4582    0.1302 O   0  0  0  0  0  0  0  0  0  0  0  0
    1.8782   -2.1988   -0.1772 O   0  0  0  0  0  0  0  0  0  0  0  0
    2.8893    0.4383   -0.0289 O   0  0  0  0  0  0  0  0  0  0  0  0
    0.9314    2.5120   -0.4198 O   0  0  0  0  0  0  0  0  0  0  0  0
   -1.6478    1.8479    0.6426 O   0  0  0  0  0  0  0  0  0  0  0  0
   -2.7361   -0.9084   -1.0882 O   0  0  0  0  0  0  0  0  0  0  0  0
   -3.2250   -0.2150    0.8015 H   0  0  0  0  0  0  0  0  0  0  0  0
   -2.6820   -1.9259    0.7120 H   0  0  0  0  0  0  0  0  0  0  0  0
    1.4551   -3.0501    0.0145 H   0  0  0  0  0  0  0  0  0  0  0  0
    3.4394   -0.3199   -0.2785 H   0  0  0  0  0  0  0  0  0  0  0  0
    1.0198    2.3983   -1.3773 H   0  0  0  0  0  0  0  0  0  0  0  0
   -1.3197    2.7331    0.4166 H   0  0  0  0  0  0  0  0  0  0  0  0
   -3.6319   -1.2173   -1.2838 H   0  0  0  0  0  0  0  0  0  0  0  0
  1  2  1  0  0  0  0
  2  3  1  0  0  0  0
  2  4  1  0  0  0  0
  4  5  1  0  0  0  0
  4  6  1  0  0  0  0
  6  7  1  0  0  0  0
  6  8  1  0  0  0  0
  8  9  1  0  0  0  0
  8 10  1  0  0  0  0
 10 11  1  0  0  0  0
  2 12  1  0  0  0  0
 10 12  1  0  0  0  0
 10 13  1  0  0  0  0
  8 14  1  0  0  0  0
  6 15  1  0  0  0  0
  4 16  1  0  0  0  0
  1 17  1  0  0  0  0
  1 18  1  0  0  0  0
  1 19  1  0  0  0  0
 13 20  1  0  0  0  0
 14 21  1  0  0  0  0
 15 22  1  0  0  0  0
 16 23  1  0  0  0  0
 17 24  1  0  0  0  0
M  END
