 xtb: 6.7.1 (edcfbbe)
          04062518003D

 24 24  0     0  0            999 V2000
   -2.0356   -0.9810   -0.6503 C   0  0  0  0  0  0  0  0  0  0  0  0
   -1.2525   -0.1602    0.3882 C   0  0  0  0  0  0  0  0  0  0  0  0
   -1.9257    0.1349    1.2015 H   0  0  0  0  0  0  0  0  0  0  0  0
   -0.6937    1.1309   -0.2357 C   0  0  0  0  0  0  0  0  0  0  0  0
   -0.6953    1.0527   -1.3351 H   0  0  0  0  0  0  0  0  0  0  0  0
    0.7599    1.3300    0.2043 C   0  0  0  0  0  0  0  0  0  0  0  0
    0.8056    1.4071    1.3012 H   0  0  0  0  0  0  0  0  0  0  0  0
    1.5694    0.1076   -0.2374 C   0  0  0  0  0  0  0  0  0  0  0  0
    1.5096    0.0248   -1.3321 H   0  0  0  0  0  0  0  0  0  0  0  0
    0.9464   -1.1685    0.3726 C   0  0  0  0  0  0  0  0  0  0  0  0
    1.6119   -1.5407    1.1687 H   0  0  0  0  0  0  0  0  0  0  0  0
   -0.2558   -0.9284    1.0534 O   0  0  0  0  0  0  0  0  0  0  0  0
    0.8178   -2.1067   -0.6514 O   0  0  0  0  0  0  0  0  0  0  0  0
    2.8970    0.3066    0.1772 O   0  0  0  0  0  0  0  0  0  0  0  0
    1.2325    2.5103   -0.3922 O   0  0  0  0  0  0  0  0  0  0  0  0
   -1.5145    2.1969    0.1635 O   0  0  0  0  0  0  0  0  0  0  0  0
   -2.5789   -2.1621   -0.1201 O   0  0  0  0  0  0  0  0  0  0  0  0
   -1.3659   -1.2966   -1.4533 H   0  0  0  0  0  0  0  0  0  0  0  0
   -2.8181   -0.3344   -1.0680 H   0  0  0  0  0  0  0  0  0  0  0  0
    0.4166   -2.9196   -0.3063 H   0  0  0  0  0  0  0  0  0  0  0  0
    3.4733   -0.3618   -0.2191 H   0  0  0  0  0  0  0  0  0  0  0  0
    2.1840    2.5781   -0.2225 H   0  0  0  0  0  0  0  0  0  0  0  0
   -1.0896    3.0256   -0.1077 H   0  0  0  0  0  0  0  0  0  0  0  0
   -3.1846   -1.9440    0.6024 H   0  0  0  0  0  0  0  0  0  0  0  0
  1  2  1  0  0  0  0
  2  3  1  0  0  0  0
  2  4  1  0  0  0  0
  4  5  1  0  0  0  0
  4  6  1  0  0  0  0
  6  7  1  0  0  0  0
  6  8  1  0  0  0  0
  8  9  1  0  0  0  0
  8 10  1  0  0  0  0
 10 11  1  0  0  0  0
  2 12  1  0  0  0  0
 10 12  1  0  0  0  0
 10 13  1  0  0  0  0
  8 14  1  0  0  0  0
  6 15  1  0  0  0  0
  4 16  1  0  0  0  0
  1 17  1  0  0  0  0
  1 18  1  0  0  0  0
  1 19  1  0  0  0  0
 13 20  1  0  0  0  0
 14 21  1  0  0  0  0
 15 22  1  0  0  0  0
 16 23  1  0  0  0  0
 17 24  1  0  0  0  0
M  END
