 xtb: 6.7.1 (edcfbbe)
          04062518003D

 24 24  0     0  0            999 V2000
   -2.1704   -1.0107   -0.4717 C   0  0  0  0  0  0  0  0  0  0  0  0
   -1.1777   -0.2206    0.3893 C   0  0  0  0  0  0  0  0  0  0  0  0
   -1.7212    0.1757    1.2546 H   0  0  0  0  0  0  0  0  0  0  0  0
   -0.6005    0.9547   -0.4092 C   0  0  0  0  0  0  0  0  0  0  0  0
   -0.4271    0.6420   -1.4491 H   0  0  0  0  0  0  0  0  0  0  0  0
    0.7582    1.3239    0.2111 C   0  0  0  0  0  0  0  0  0  0  0  0
    0.6454    1.4164    1.2997 H   0  0  0  0  0  0  0  0  0  0  0  0
    1.7177    0.1681   -0.0856 C   0  0  0  0  0  0  0  0  0  0  0  0
    1.9598    0.1886   -1.1587 H   0  0  0  0  0  0  0  0  0  0  0  0
    1.0279   -1.1781    0.2172 C   0  0  0  0  0  0  0  0  0  0  0  0
    1.6888   -1.7392    0.8927 H   0  0  0  0  0  0  0  0  0  0  0  0
   -0.1588   -1.0388    0.9547 O   0  0  0  0  0  0  0  0  0  0  0  0
    0.8330   -1.8501   -0.9882 O   0  0  0  0  0  0  0  0  0  0  0  0
    2.8877    0.2401    0.6848 O   0  0  0  0  0  0  0  0  0  0  0  0
    1.3039    2.4985   -0.3413 O   0  0  0  0  0  0  0  0  0  0  0  0
   -1.5262    2.0112   -0.3593 O   0  0  0  0  0  0  0  0  0  0  0  0
   -2.8576   -1.9340    0.3405 O   0  0  0  0  0  0  0  0  0  0  0  0
   -1.6235   -1.5197   -1.2742 H   0  0  0  0  0  0  0  0  0  0  0  0
   -2.8660   -0.2818   -0.9074 H   0  0  0  0  0  0  0  0  0  0  0  0
    0.6112   -2.7781   -0.8141 H   0  0  0  0  0  0  0  0  0  0  0  0
    3.3209    1.0899    0.5087 H   0  0  0  0  0  0  0  0  0  0  0  0
    0.8492    3.2678    0.0306 H   0  0  0  0  0  0  0  0  0  0  0  0
   -1.2923    2.6711   -1.0292 H   0  0  0  0  0  0  0  0  0  0  0  0
   -3.4968   -2.4183   -0.2013 H   0  0  0  0  0  0  0  0  0  0  0  0
  1  2  1  0  0  0  0
  2  3  1  0  0  0  0
  2  4  1  0  0  0  0
  4  5  1  0  0  0  0
  4  6  1  0  0  0  0
  6  7  1  0  0  0  0
  6  8  1  0  0  0  0
  8  9  1  0  0  0  0
  8 10  1  0  0  0  0
 10 11  1  0  0  0  0
  2 12  1  0  0  0  0
 10 12  1  0  0  0  0
 10 13  1  0  0  0  0
  8 14  1  0  0  0  0
  6 15  1  0  0  0  0
  4 16  1  0  0  0  0
  1 17  1  0  0  0  0
  1 18  1  0  0  0  0
  1 19  1  0  0  0  0
 13 20  1  0  0  0  0
 14 21  1  0  0  0  0
 15 22  1  0  0  0  0
 16 23  1  0  0  0  0
 17 24  1  0  0  0  0
M  END
