 xtb: 6.7.1 (edcfbbe)
          04062518003D

 24 24  0     0  0            999 V2000
   -2.0848   -1.2166   -0.2220 C   0  0  0  0  0  0  0  0  0  0  0  0
   -1.2558   -0.3685    0.7543 C   0  0  0  0  0  0  0  0  0  0  0  0
   -1.8656   -0.2365    1.6548 H   0  0  0  0  0  0  0  0  0  0  0  0
   -0.9202    1.0198    0.1645 C   0  0  0  0  0  0  0  0  0  0  0  0
   -1.1861    1.0478   -0.8973 H   0  0  0  0  0  0  0  0  0  0  0  0
    0.5891    1.2836    0.2777 C   0  0  0  0  0  0  0  0  0  0  0  0
    0.8706    1.3254    1.3457 H   0  0  0  0  0  0  0  0  0  0  0  0
    1.3330    0.1164   -0.3817 C   0  0  0  0  0  0  0  0  0  0  0  0
    0.9888    0.0189   -1.4175 H   0  0  0  0  0  0  0  0  0  0  0  0
    1.0013   -1.1899    0.3894 C   0  0  0  0  0  0  0  0  0  0  0  0
    1.8325   -1.4364    1.0614 H   0  0  0  0  0  0  0  0  0  0  0  0
   -0.1009   -1.0308    1.2581 O   0  0  0  0  0  0  0  0  0  0  0  0
    0.8670   -2.2852   -0.4475 O   0  0  0  0  0  0  0  0  0  0  0  0
    2.7163    0.3202   -0.4772 O   0  0  0  0  0  0  0  0  0  0  0  0
    0.9407    2.4886   -0.3526 O   0  0  0  0  0  0  0  0  0  0  0  0
   -1.6602    2.0587    0.7541 O   0  0  0  0  0  0  0  0  0  0  0  0
   -1.4593   -1.2736   -1.4917 O   0  0  0  0  0  0  0  0  0  0  0  0
   -3.0694   -0.7460   -0.3055 H   0  0  0  0  0  0  0  0  0  0  0  0
   -2.1902   -2.2229    0.1999 H   0  0  0  0  0  0  0  0  0  0  0  0
    0.1379   -2.1069   -1.0788 H   0  0  0  0  0  0  0  0  0  0  0  0
    3.0618    0.6624    0.3596 H   0  0  0  0  0  0  0  0  0  0  0  0
    0.2304    3.1325   -0.2006 H   0  0  0  0  0  0  0  0  0  0  0  0
   -1.5054    2.0760    1.7106 H   0  0  0  0  0  0  0  0  0  0  0  0
   -2.0625   -1.6922   -2.1225 H   0  0  0  0  0  0  0  0  0  0  0  0
  1  2  1  0  0  0  0
  2  3  1  0  0  0  0
  2  4  1  0  0  0  0
  4  5  1  0  0  0  0
  4  6  1  0  0  0  0
  6  7  1  0  0  0  0
  6  8  1  0  0  0  0
  8  9  1  0  0  0  0
  8 10  1  0  0  0  0
 10 11  1  0  0  0  0
  2 12  1  0  0  0  0
 10 12  1  0  0  0  0
 10 13  1  0  0  0  0
  8 14  1  0  0  0  0
  6 15  1  0  0  0  0
  4 16  1  0  0  0  0
  1 17  1  0  0  0  0
  1 18  1  0  0  0  0
  1 19  1  0  0  0  0
 13 20  1  0  0  0  0
 14 21  1  0  0  0  0
 15 22  1  0  0  0  0
 16 23  1  0  0  0  0
 17 24  1  0  0  0  0
M  END
