 xtb: 6.7.1 (edcfbbe)
          04052508553D

 21 21  0     0  0            999 V2000
   -3.2872    0.6974    0.4062 C   0  0  0  0  0  0  0  0  0  0  0  0
   -2.4496   -0.3872   -0.2630 C   0  0  0  0  0  0  0  0  0  0  0  0
   -0.9582   -0.2099   -0.1397 C   0  0  0  0  0  0  0  0  0  0  0  0
   -0.1309   -1.3181   -0.2990 C   0  0  0  0  0  0  0  0  0  0  0  0
    1.2427   -1.2034   -0.2190 C   0  0  0  0  0  0  0  0  0  0  0  0
    1.8420    0.0272    0.0270 C   0  0  0  0  0  0  0  0  0  0  0  0
    1.0190    1.1319    0.1870 C   0  0  0  0  0  0  0  0  0  0  0  0
   -0.3587    1.0176    0.1032 C   0  0  0  0  0  0  0  0  0  0  0  0
    3.3329    0.1410    0.1296 C   0  0  0  0  0  0  0  0  0  0  0  0
   -4.3386    0.4214    0.3741 H   0  0  0  0  0  0  0  0  0  0  0  0
   -3.1749    1.6514   -0.1029 H   0  0  0  0  0  0  0  0  0  0  0  0
   -2.9942    0.8187    1.4466 H   0  0  0  0  0  0  0  0  0  0  0  0
   -2.7036   -0.4277   -1.3274 H   0  0  0  0  0  0  0  0  0  0  0  0
   -2.7146   -1.3575    0.1650 H   0  0  0  0  0  0  0  0  0  0  0  0
   -0.5741   -2.2857   -0.4904 H   0  0  0  0  0  0  0  0  0  0  0  0
    1.8619   -2.0800   -0.3470 H   0  0  0  0  0  0  0  0  0  0  0  0
    1.4590    2.1005    0.3790 H   0  0  0  0  0  0  0  0  0  0  0  0
   -0.9624    1.9025    0.2303 H   0  0  0  0  0  0  0  0  0  0  0  0
    3.6782   -0.2987    1.0649 H   0  0  0  0  0  0  0  0  0  0  0  0
    3.8141   -0.3929   -0.6874 H   0  0  0  0  0  0  0  0  0  0  0  0
    3.6450    1.1817    0.1036 H   0  0  0  0  0  0  0  0  0  0  0  0
  1  2  1  0  0  0  0
  2  3  1  0  0  0  0
  3  4  4  0  0  0  0
  4  5  4  0  0  0  0
  5  6  4  0  0  0  0
  6  7  4  0  0  0  0
  3  8  4  0  0  0  0
  7  8  4  0  0  0  0
  6  9  1  0  0  0  0
  1 10  1  0  0  0  0
  1 11  1  0  0  0  0
  1 12  1  0  0  0  0
  2 13  1  0  0  0  0
  2 14  1  0  0  0  0
  4 15  1  0  0  0  0
  5 16  1  0  0  0  0
  7 17  1  0  0  0  0
  8 18  1  0  0  0  0
  9 19  1  0  0  0  0
  9 20  1  0  0  0  0
  9 21  1  0  0  0  0
M  END
