 xtb: 6.7.1 (edcfbbe)
          04062518003D

 24 24  0     0  0            999 V2000
   -1.8534   -0.9787   -0.8221 C   0  0  0  0  0  0  0  0  0  0  0  0
   -1.2741   -0.1819    0.3574 C   0  0  0  0  0  0  0  0  0  0  0  0
   -2.0766   -0.0502    1.0925 H   0  0  0  0  0  0  0  0  0  0  0  0
   -0.7720    1.2231   -0.0634 C   0  0  0  0  0  0  0  0  0  0  0  0
   -0.9309    1.3730   -1.1365 H   0  0  0  0  0  0  0  0  0  0  0  0
    0.7341    1.3504    0.1976 C   0  0  0  0  0  0  0  0  0  0  0  0
    0.9203    1.4102    1.2831 H   0  0  0  0  0  0  0  0  0  0  0  0
    1.4318    0.0955   -0.3392 C   0  0  0  0  0  0  0  0  0  0  0  0
    1.1490   -0.0474   -1.3911 H   0  0  0  0  0  0  0  0  0  0  0  0
    0.9612   -1.1236    0.4712 C   0  0  0  0  0  0  0  0  0  0  0  0
    1.6465   -1.2610    1.3217 H   0  0  0  0  0  0  0  0  0  0  0  0
   -0.2944   -0.9314    1.0765 O   0  0  0  0  0  0  0  0  0  0  0  0
    0.9867   -2.2325   -0.3749 O   0  0  0  0  0  0  0  0  0  0  0  0
    2.8175    0.2917   -0.2170 O   0  0  0  0  0  0  0  0  0  0  0  0
    1.2062    2.5070   -0.4378 O   0  0  0  0  0  0  0  0  0  0  0  0
   -1.5155    2.2407    0.5501 O   0  0  0  0  0  0  0  0  0  0  0  0
   -2.6282   -2.0694   -0.3873 O   0  0  0  0  0  0  0  0  0  0  0  0
   -1.0418   -1.3206   -1.4768 H   0  0  0  0  0  0  0  0  0  0  0  0
   -2.5302   -0.3380   -1.3891 H   0  0  0  0  0  0  0  0  0  0  0  0
    0.9039   -3.0541    0.1318 H   0  0  0  0  0  0  0  0  0  0  0  0
    3.2937   -0.4039   -0.6919 H   0  0  0  0  0  0  0  0  0  0  0  0
    2.1764    2.4799   -0.4289 H   0  0  0  0  0  0  0  0  0  0  0  0
   -1.2873    2.3004    1.4895 H   0  0  0  0  0  0  0  0  0  0  0  0
   -2.1046   -2.5938    0.2352 H   0  0  0  0  0  0  0  0  0  0  0  0
  1  2  1  0  0  0  0
  2  3  1  0  0  0  0
  2  4  1  0  0  0  0
  4  5  1  0  0  0  0
  4  6  1  0  0  0  0
  6  7  1  0  0  0  0
  6  8  1  0  0  0  0
  8  9  1  0  0  0  0
  8 10  1  0  0  0  0
 10 11  1  0  0  0  0
  2 12  1  0  0  0  0
 10 12  1  0  0  0  0
 10 13  1  0  0  0  0
  8 14  1  0  0  0  0
  6 15  1  0  0  0  0
  4 16  1  0  0  0  0
  1 17  1  0  0  0  0
  1 18  1  0  0  0  0
  1 19  1  0  0  0  0
 13 20  1  0  0  0  0
 14 21  1  0  0  0  0
 15 22  1  0  0  0  0
 16 23  1  0  0  0  0
 17 24  1  0  0  0  0
M  END
