 xtb: 6.7.1 (edcfbbe)
          04042518283D

 12 11  0     0  0            999 V2000
    1.9963   -0.7959   -0.3608 C   0  0  0  0  0  0  0  0  0  0  0  0
    1.1354    0.3379   -0.4088 O   0  0  0  0  0  0  0  0  0  0  0  0
   -0.3687    0.0517    0.0908 S   0  0  0  0  0  0  0  0  0  0  0  0
   -0.3215   -0.3451    1.4808 O   0  0  0  0  0  0  0  0  0  0  0  0
   -0.9690   -0.9192   -0.7972 O   0  0  0  0  0  0  0  0  0  0  0  0
   -1.0624    1.6678   -0.1197 C   0  0  0  0  0  0  0  0  0  0  0  0
    2.9648   -0.4627   -0.7245 H   0  0  0  0  0  0  0  0  0  0  0  0
    1.5888   -1.5848   -0.9947 H   0  0  0  0  0  0  0  0  0  0  0  0
    2.0646   -1.1530    0.6678 H   0  0  0  0  0  0  0  0  0  0  0  0
   -0.4970    2.3329    0.5165 H   0  0  0  0  0  0  0  0  0  0  0  0
   -0.9550    1.9165   -1.1654 H   0  0  0  0  0  0  0  0  0  0  0  0
   -2.1020    1.6221    0.1749 H   0  0  0  0  0  0  0  0  0  0  0  0
  1  2  1  0  0  0  0
  2  3  1  0  0  0  0
  3  4  2  0  0  0  0
  3  5  2  0  0  0  0
  3  6  1  0  0  0  0
  1  7  1  0  0  0  0
  1  8  1  0  0  0  0
  1  9  1  0  0  0  0
  6 10  1  0  0  0  0
  6 11  1  0  0  0  0
  6 12  1  0  0  0  0
M  END
