 xtb: 6.7.1 (edcfbbe)
          04032521483D

  5  4  0     0  0            999 V2000
    0.0000    0.0000    0.0000 C   0  0  0  0  0  0  0  0  0  0  0  0
    0.5955   -0.1889    0.8832 H   0  0  0  0  0  0  0  0  0  0  0  0
    0.6501    0.2658   -0.8229 H   0  0  0  0  0  0  0  0  0  0  0  0
   -0.5592   -0.8903   -0.2552 H   0  0  0  0  0  0  0  0  0  0  0  0
   -0.6863    0.8133    0.1948 H   0  0  0  0  0  0  0  0  0  0  0  0
  1  2  1  0  0  0  0
  1  3  1  0  0  0  0
  1  4  1  0  0  0  0
  1  5  1  0  0  0  0
M  END
