 xtb: 6.7.1 (edcfbbe)
          04032520573D

 19 20  0     0  0            999 V2000
   -2.1967    0.6923    0.0480 C   0  0  0  0  0  0  0  0  0  0  0  0
   -2.1968   -0.6923    0.0478 C   0  0  0  0  0  0  0  0  0  0  0  0
   -1.0024   -1.3987   -0.0044 C   0  0  0  0  0  0  0  0  0  0  0  0
    0.1849   -0.6966   -0.0511 C   0  0  0  0  0  0  0  0  0  0  0  0
    0.1849    0.6966   -0.0511 C   0  0  0  0  0  0  0  0  0  0  0  0
   -1.0023    1.3987   -0.0040 C   0  0  0  0  0  0  0  0  0  0  0  0
    1.5887    1.2218   -0.1224 C   0  0  0  0  0  0  0  0  0  0  0  0
    2.4427   -0.0000    0.2541 C   0  0  0  0  0  0  0  0  0  0  0  0
    1.5886   -1.2219   -0.1219 C   0  0  0  0  0  0  0  0  0  0  0  0
   -3.1336    1.2279    0.0910 H   0  0  0  0  0  0  0  0  0  0  0  0
   -3.1338   -1.2277    0.0905 H   0  0  0  0  0  0  0  0  0  0  0  0
   -1.0050   -2.4790   -0.0039 H   0  0  0  0  0  0  0  0  0  0  0  0
   -1.0049    2.4790   -0.0032 H   0  0  0  0  0  0  0  0  0  0  0  0
    1.8041    1.5488   -1.1433 H   0  0  0  0  0  0  0  0  0  0  0  0
    1.7539    2.0688    0.5429 H   0  0  0  0  0  0  0  0  0  0  0  0
    3.4082   -0.0002   -0.2483 H   0  0  0  0  0  0  0  0  0  0  0  0
    2.6187    0.0002    1.3309 H   0  0  0  0  0  0  0  0  0  0  0  0
    1.8042   -1.5499   -1.1423 H   0  0  0  0  0  0  0  0  0  0  0  0
    1.7533   -2.0683    0.5442 H   0  0  0  0  0  0  0  0  0  0  0  0
  1  2  4  0  0  0  0
  2  3  4  0  0  0  0
  3  4  4  0  0  0  0
  4  5  4  0  0  0  0
  1  6  4  0  0  0  0
  5  6  4  0  0  0  0
  5  7  1  0  0  0  0
  7  8  1  0  0  0  0
  4  9  1  0  0  0  0
  8  9  1  0  0  0  0
  1 10  1  0  0  0  0
  2 11  1  0  0  0  0
  3 12  1  0  0  0  0
  6 13  1  0  0  0  0
  7 14  1  0  0  0  0
  7 15  1  0  0  0  0
  8 16  1  0  0  0  0
  8 17  1  0  0  0  0
  9 18  1  0  0  0  0
  9 19  1  0  0  0  0
M  END
