 xtb: 6.7.1 (edcfbbe)
          04062518003D

 24 24  0     0  0            999 V2000
   -2.2597   -0.9724   -0.3475 C   0  0  0  0  0  0  0  0  0  0  0  0
   -1.1427   -0.2236    0.3901 C   0  0  0  0  0  0  0  0  0  0  0  0
   -1.5688    0.2300    1.2937 H   0  0  0  0  0  0  0  0  0  0  0  0
   -0.5520    0.8902   -0.4766 C   0  0  0  0  0  0  0  0  0  0  0  0
   -0.3499    0.5076   -1.4853 H   0  0  0  0  0  0  0  0  0  0  0  0
    0.7828    1.3304    0.1577 C   0  0  0  0  0  0  0  0  0  0  0  0
    0.6011    1.5584    1.2179 H   0  0  0  0  0  0  0  0  0  0  0  0
    1.7819    0.1689    0.0596 C   0  0  0  0  0  0  0  0  0  0  0  0
    2.2978    0.2457   -0.9026 H   0  0  0  0  0  0  0  0  0  0  0  0
    1.0439   -1.1911    0.0957 C   0  0  0  0  0  0  0  0  0  0  0  0
    1.6737   -1.9005    0.6500 H   0  0  0  0  0  0  0  0  0  0  0  0
   -0.1450   -1.1390    0.8488 O   0  0  0  0  0  0  0  0  0  0  0  0
    0.8288   -1.6153   -1.2134 O   0  0  0  0  0  0  0  0  0  0  0  0
    2.7861    0.2328    1.0347 O   0  0  0  0  0  0  0  0  0  0  0  0
    1.3322    2.4473   -0.4986 O   0  0  0  0  0  0  0  0  0  0  0  0
   -1.4858    1.9415   -0.5160 O   0  0  0  0  0  0  0  0  0  0  0  0
   -2.9439   -1.8654    0.4950 O   0  0  0  0  0  0  0  0  0  0  0  0
   -1.8327   -1.5011   -1.2098 H   0  0  0  0  0  0  0  0  0  0  0  0
   -2.9964   -0.2474   -0.6978 H   0  0  0  0  0  0  0  0  0  0  0  0
    0.6696   -2.5711   -1.2431 H   0  0  0  0  0  0  0  0  0  0  0  0
    2.3903    0.2411    1.9193 H   0  0  0  0  0  0  0  0  0  0  0  0
    0.8805    3.2505   -0.2021 H   0  0  0  0  0  0  0  0  0  0  0  0
   -1.2648    2.5344   -1.2488 H   0  0  0  0  0  0  0  0  0  0  0  0
   -2.2900   -2.4054    0.9634 H   0  0  0  0  0  0  0  0  0  0  0  0
  1  2  1  0  0  0  0
  2  3  1  0  0  0  0
  2  4  1  0  0  0  0
  4  5  1  0  0  0  0
  4  6  1  0  0  0  0
  6  7  1  0  0  0  0
  6  8  1  0  0  0  0
  8  9  1  0  0  0  0
  8 10  1  0  0  0  0
 10 11  1  0  0  0  0
  2 12  1  0  0  0  0
 10 12  1  0  0  0  0
 10 13  1  0  0  0  0
  8 14  1  0  0  0  0
  6 15  1  0  0  0  0
  4 16  1  0  0  0  0
  1 17  1  0  0  0  0
  1 18  1  0  0  0  0
  1 19  1  0  0  0  0
 13 20  1  0  0  0  0
 14 21  1  0  0  0  0
 15 22  1  0  0  0  0
 16 23  1  0  0  0  0
 17 24  1  0  0  0  0
M  END
