 xtb: 6.7.1 (edcfbbe)
          04062508313D

 24 24  0     0  0            999 V2000
   -3.3521    0.2580    0.2988 C   0  0  0  0  0  0  0  0  0  0  0  0
   -2.1716    0.3702   -0.4999 O   0  0  0  0  0  0  0  0  0  0  0  0
   -1.0517   -0.1716   -0.0211 C   0  0  0  0  0  0  0  0  0  0  0  0
   -1.0156   -0.7559    1.0400 O   0  0  0  0  0  0  0  0  0  0  0  0
    0.1003    0.0834   -0.9656 C   0  0  0  0  0  0  0  0  0  0  0  0
    1.0826   -1.0901   -1.0463 C   0  0  0  0  0  0  0  0  0  0  0  0
    1.8969   -1.2590    0.2337 C   0  0  0  0  0  0  0  0  0  0  0  0
    2.6225    0.0352    0.5859 C   0  0  0  0  0  0  0  0  0  0  0  0
    1.6120    1.1649    0.7572 C   0  0  0  0  0  0  0  0  0  0  0  0
    0.8274    1.3699   -0.5342 C   0  0  0  0  0  0  0  0  0  0  0  0
   -3.1996    0.7478    1.2613 H   0  0  0  0  0  0  0  0  0  0  0  0
   -3.5873   -0.7932    0.4695 H   0  0  0  0  0  0  0  0  0  0  0  0
   -4.1372    0.7472   -0.2686 H   0  0  0  0  0  0  0  0  0  0  0  0
   -0.3487    0.2550   -1.9488 H   0  0  0  0  0  0  0  0  0  0  0  0
    0.5338   -2.0102   -1.2574 H   0  0  0  0  0  0  0  0  0  0  0  0
    1.7607   -0.9005   -1.8808 H   0  0  0  0  0  0  0  0  0  0  0  0
    1.2284   -1.5326    1.0512 H   0  0  0  0  0  0  0  0  0  0  0  0
    2.6159   -2.0690    0.0988 H   0  0  0  0  0  0  0  0  0  0  0  0
    3.1907   -0.0985    1.5077 H   0  0  0  0  0  0  0  0  0  0  0  0
    3.3242    0.2916   -0.2111 H   0  0  0  0  0  0  0  0  0  0  0  0
    0.9263    0.9115    1.5691 H   0  0  0  0  0  0  0  0  0  0  0  0
    2.1231    2.0919    1.0231 H   0  0  0  0  0  0  0  0  0  0  0  0
    0.1009    2.1764   -0.4157 H   0  0  0  0  0  0  0  0  0  0  0  0
    1.5174    1.6491   -1.3325 H   0  0  0  0  0  0  0  0  0  0  0  0
  1  2  1  0  0  0  0
  2  3  1  0  0  0  0
  3  4  2  0  0  0  0
  3  5  1  0  0  0  0
  5  6  1  0  0  0  0
  6  7  1  0  0  0  0
  7  8  1  0  0  0  0
  8  9  1  0  0  0  0
  5 10  1  0  0  0  0
  9 10  1  0  0  0  0
  1 11  1  0  0  0  0
  1 12  1  0  0  0  0
  1 13  1  0  0  0  0
  5 14  1  0  0  0  0
  6 15  1  0  0  0  0
  6 16  1  0  0  0  0
  7 17  1  0  0  0  0
  7 18  1  0  0  0  0
  8 19  1  0  0  0  0
  8 20  1  0  0  0  0
  9 21  1  0  0  0  0
  9 22  1  0  0  0  0
 10 23  1  0  0  0  0
 10 24  1  0  0  0  0
M  END
