 xtb: 6.7.1 (edcfbbe)
          04032521303D

 19 19  0     0  0            999 V2000
   -1.8846    0.0197    0.2991 C   0  0  0  0  0  0  0  0  0  0  0  0
   -1.1950   -1.2116   -0.3023 C   0  0  0  0  0  0  0  0  0  0  0  0
    0.2674   -1.2732    0.1210 C   0  0  0  0  0  0  0  0  0  0  0  0
    1.0628   -0.0915   -0.4523 C   0  0  0  0  0  0  0  0  0  0  0  0
    0.1595    1.1407   -0.6322 C   0  0  0  0  0  0  0  0  0  0  0  0
   -0.9012    1.1852    0.4615 C   0  0  0  0  0  0  0  0  0  0  0  0
    2.1298    0.1569    0.4496 O   0  0  0  0  0  0  0  0  0  0  0  0
   -2.3056   -0.2308    1.2739 H   0  0  0  0  0  0  0  0  0  0  0  0
   -2.7107    0.3189   -0.3482 H   0  0  0  0  0  0  0  0  0  0  0  0
   -1.7082   -2.1184    0.0190 H   0  0  0  0  0  0  0  0  0  0  0  0
   -1.2432   -1.1758   -1.3923 H   0  0  0  0  0  0  0  0  0  0  0  0
    0.3433   -1.2256    1.2086 H   0  0  0  0  0  0  0  0  0  0  0  0
    0.7239   -2.2100   -0.1998 H   0  0  0  0  0  0  0  0  0  0  0  0
    1.4835   -0.3699   -1.4324 H   0  0  0  0  0  0  0  0  0  0  0  0
    0.7727    2.0433   -0.5995 H   0  0  0  0  0  0  0  0  0  0  0  0
   -0.3219    1.0989   -1.6099 H   0  0  0  0  0  0  0  0  0  0  0  0
   -0.3989    1.1217    1.4284 H   0  0  0  0  0  0  0  0  0  0  0  0
   -1.4383    2.1340    0.4284 H   0  0  0  0  0  0  0  0  0  0  0  0
    2.6824    0.8720    0.1072 H   0  0  0  0  0  0  0  0  0  0  0  0
  1  2  1  0  0  0  0
  2  3  1  0  0  0  0
  3  4  1  0  0  0  0
  4  5  1  0  0  0  0
  1  6  1  0  0  0  0
  5  6  1  0  0  0  0
  4  7  1  0  0  0  0
  1  8  1  0  0  0  0
  1  9  1  0  0  0  0
  2 10  1  0  0  0  0
  2 11  1  0  0  0  0
  3 12  1  0  0  0  0
  3 13  1  0  0  0  0
  4 14  1  0  0  0  0
  5 15  1  0  0  0  0
  5 16  1  0  0  0  0
  6 17  1  0  0  0  0
  6 18  1  0  0  0  0
  7 19  1  0  0  0  0
M  END
