 xtb: 6.7.1 (edcfbbe)
          04062511443D

 31 31  0     0  0            999 V2000
    3.7469    0.2080    0.0696 C   0  0  0  0  0  0  0  0  0  0  0  0
    2.2887    0.1739   -0.3778 C   0  0  0  0  0  0  0  0  0  0  0  0
    2.2564    0.0098   -1.4612 H   0  0  0  0  0  0  0  0  0  0  0  0
    1.5726    1.4821   -0.0601 C   0  0  0  0  0  0  0  0  0  0  0  0
    0.1276    1.4053   -0.5325 C   0  0  0  0  0  0  0  0  0  0  0  0
   -0.6773    0.2828    0.1402 C   0  0  0  0  0  0  0  0  0  0  0  0
   -0.7005    0.4504    1.2227 H   0  0  0  0  0  0  0  0  0  0  0  0
    0.0566   -1.0589   -0.0750 C   0  0  0  0  0  0  0  0  0  0  0  0
   -0.0233   -1.3489   -1.1347 H   0  0  0  0  0  0  0  0  0  0  0  0
    1.5377   -0.9560    0.3134 C   0  0  0  0  0  0  0  0  0  0  0  0
   -0.4292   -2.1037    0.7543 O   0  0  0  0  0  0  0  0  0  0  0  0
   -2.1280    0.3600   -0.4028 C   0  0  0  0  0  0  0  0  0  0  0  0
   -2.9522   -0.9247   -0.3093 C   0  0  0  0  0  0  0  0  0  0  0  0
   -2.8936    1.4655    0.3295 C   0  0  0  0  0  0  0  0  0  0  0  0
    4.2415   -0.7309   -0.1670 H   0  0  0  0  0  0  0  0  0  0  0  0
    4.2783    1.0144   -0.4300 H   0  0  0  0  0  0  0  0  0  0  0  0
    3.8091    0.3675    1.1437 H   0  0  0  0  0  0  0  0  0  0  0  0
    1.6033    1.6605    1.0167 H   0  0  0  0  0  0  0  0  0  0  0  0
    2.0745    2.3159   -0.5550 H   0  0  0  0  0  0  0  0  0  0  0  0
   -0.3619    2.3616   -0.3475 H   0  0  0  0  0  0  0  0  0  0  0  0
    0.1228    1.2344   -1.6126 H   0  0  0  0  0  0  0  0  0  0  0  0
    1.5765   -0.8147    1.3960 H   0  0  0  0  0  0  0  0  0  0  0  0
    2.0032   -1.9193    0.0955 H   0  0  0  0  0  0  0  0  0  0  0  0
   -1.2935   -2.4018    0.4472 H   0  0  0  0  0  0  0  0  0  0  0  0
   -2.0659    0.6273   -1.4645 H   0  0  0  0  0  0  0  0  0  0  0  0
   -3.9624   -0.7227   -0.6610 H   0  0  0  0  0  0  0  0  0  0  0  0
   -3.0218   -1.2663    0.7207 H   0  0  0  0  0  0  0  0  0  0  0  0
   -2.5426   -1.7079   -0.9431 H   0  0  0  0  0  0  0  0  0  0  0  0
   -3.8767    1.6002   -0.1155 H   0  0  0  0  0  0  0  0  0  0  0  0
   -2.3707    2.4161    0.2831 H   0  0  0  0  0  0  0  0  0  0  0  0
   -3.0254    1.1979    1.3758 H   0  0  0  0  0  0  0  0  0  0  0  0
  1  2  1  0  0  0  0
  2  3  1  0  0  0  0
  2  4  1  0  0  0  0
  4  5  1  0  0  0  0
  5  6  1  0  0  0  0
  6  7  1  0  0  0  0
  6  8  1  0  0  0  0
  8  9  1  0  0  0  0
  2 10  1  0  0  0  0
  8 10  1  0  0  0  0
  8 11  1  0  0  0  0
  6 12  1  0  0  0  0
 12 13  1  0  0  0  0
 12 14  1  0  0  0  0
  1 15  1  0  0  0  0
  1 16  1  0  0  0  0
  1 17  1  0  0  0  0
  4 18  1  0  0  0  0
  4 19  1  0  0  0  0
  5 20  1  0  0  0  0
  5 21  1  0  0  0  0
 10 22  1  0  0  0  0
 10 23  1  0  0  0  0
 11 24  1  0  0  0  0
 12 25  1  0  0  0  0
 13 26  1  0  0  0  0
 13 27  1  0  0  0  0
 13 28  1  0  0  0  0
 14 29  1  0  0  0  0
 14 30  1  0  0  0  0
 14 31  1  0  0  0  0
M  END
