 xtb: 6.7.1 (edcfbbe)
          04042519533D

 15 15  0     0  0            999 V2000
    1.8948   -1.4646    0.0000 C   0  0  0  0  0  0  0  0  0  0  0  0
    2.5809   -0.2473    0.0000 C   0  0  0  0  0  0  0  0  0  0  0  0
    1.8968    0.9449    0.0000 C   0  0  0  0  0  0  0  0  0  0  0  0
    0.4954    0.9794   -0.0001 C   0  0  0  0  0  0  0  0  0  0  0  0
   -0.1928   -0.2575   -0.0001 C   0  0  0  0  0  0  0  0  0  0  0  0
    0.5248   -1.4662   -0.0000 C   0  0  0  0  0  0  0  0  0  0  0  0
   -1.5932   -0.3242    0.0000 N   0  0  0  0  0  0  0  0  0  0  0  0
   -2.1450   -1.4160    0.0000 O   0  0  0  0  0  0  0  0  0  0  0  0
   -2.2428    0.7288    0.0000 O   0  0  0  0  0  0  0  0  0  0  0  0
   -0.0884    2.1712    0.0000 O   0  0  0  0  0  0  0  0  0  0  0  0
    2.4380   -2.3944    0.0000 H   0  0  0  0  0  0  0  0  0  0  0  0
    3.6590   -0.2411    0.0002 H   0  0  0  0  0  0  0  0  0  0  0  0
    2.4112    1.8919    0.0002 H   0  0  0  0  0  0  0  0  0  0  0  0
   -0.0412   -2.3848    0.0000 H   0  0  0  0  0  0  0  0  0  0  0  0
   -1.0694    2.0864   -0.0001 H   0  0  0  0  0  0  0  0  0  0  0  0
  1  2  4  0  0  0  0
  2  3  2  0  0  0  0
  3  4  4  0  0  0  0
  4  5  4  0  0  0  0
  1  6  2  0  0  0  0
  5  6  4  0  0  0  0
  5  7  1  0  0  0  0
  7  8  4  0  0  0  0
  7  9  4  0  0  0  0
  4 10  1  0  0  0  0
  1 11  1  0  0  0  0
  2 12  1  0  0  0  0
  3 13  1  0  0  0  0
  6 14  1  0  0  0  0
 10 15  1  0  0  0  0
M  END
