 xtb: 6.7.1 (edcfbbe)
          04062518003D

 24 24  0     0  0            999 V2000
   -2.3910   -1.1598   -0.3112 C   0  0  0  0  0  0  0  0  0  0  0  0
   -1.0693   -0.6233    0.2484 C   0  0  0  0  0  0  0  0  0  0  0  0
   -1.1113   -0.6116    1.3499 H   0  0  0  0  0  0  0  0  0  0  0  0
   -0.7770    0.8047   -0.2361 C   0  0  0  0  0  0  0  0  0  0  0  0
   -0.8318    0.8223   -1.3376 H   0  0  0  0  0  0  0  0  0  0  0  0
    0.6392    1.2455    0.1727 C   0  0  0  0  0  0  0  0  0  0  0  0
    0.6618    1.3880    1.2644 H   0  0  0  0  0  0  0  0  0  0  0  0
    1.6826    0.1877   -0.1889 C   0  0  0  0  0  0  0  0  0  0  0  0
    1.7967    0.1654   -1.2817 H   0  0  0  0  0  0  0  0  0  0  0  0
    1.2185   -1.2026    0.2815 C   0  0  0  0  0  0  0  0  0  0  0  0
    1.2110   -1.2051    1.3929 H   0  0  0  0  0  0  0  0  0  0  0  0
   -0.0697   -1.5200   -0.1902 O   0  0  0  0  0  0  0  0  0  0  0  0
    2.1035   -2.1362   -0.2175 O   0  0  0  0  0  0  0  0  0  0  0  0
    2.8906    0.5271    0.4379 O   0  0  0  0  0  0  0  0  0  0  0  0
    0.9853    2.4411   -0.4780 O   0  0  0  0  0  0  0  0  0  0  0  0
   -1.6634    1.7465    0.3154 O   0  0  0  0  0  0  0  0  0  0  0  0
   -3.4510   -0.3620    0.1610 O   0  0  0  0  0  0  0  0  0  0  0  0
   -2.4965   -2.2000    0.0160 H   0  0  0  0  0  0  0  0  0  0  0  0
   -2.3333   -1.1380   -1.4062 H   0  0  0  0  0  0  0  0  0  0  0  0
    1.7477   -3.0297   -0.0893 H   0  0  0  0  0  0  0  0  0  0  0  0
    3.5743   -0.1013    0.1602 H   0  0  0  0  0  0  0  0  0  0  0  0
    0.3191    3.1089   -0.2538 H   0  0  0  0  0  0  0  0  0  0  0  0
   -2.5644    1.3784    0.2889 H   0  0  0  0  0  0  0  0  0  0  0  0
   -4.2918   -0.7215   -0.1566 H   0  0  0  0  0  0  0  0  0  0  0  0
  1  2  1  0  0  0  0
  2  3  1  0  0  0  0
  2  4  1  0  0  0  0
  4  5  1  0  0  0  0
  4  6  1  0  0  0  0
  6  7  1  0  0  0  0
  6  8  1  0  0  0  0
  8  9  1  0  0  0  0
  8 10  1  0  0  0  0
 10 11  1  0  0  0  0
  2 12  1  0  0  0  0
 10 12  1  0  0  0  0
 10 13  1  0  0  0  0
  8 14  1  0  0  0  0
  6 15  1  0  0  0  0
  4 16  1  0  0  0  0
  1 17  1  0  0  0  0
  1 18  1  0  0  0  0
  1 19  1  0  0  0  0
 13 20  1  0  0  0  0
 14 21  1  0  0  0  0
 15 22  1  0  0  0  0
 16 23  1  0  0  0  0
 17 24  1  0  0  0  0
M  END
