 xtb: 6.7.1 (edcfbbe)
          04042517583D

 13 12  0     0  0            999 V2000
   -1.9465   -0.1008   -0.0376 C   0  0  0  0  0  0  0  0  0  0  0  0
   -0.5624    0.5335    0.0108 C   0  0  0  0  0  0  0  0  0  0  0  0
    0.5441   -0.5192    0.0154 C   0  0  0  0  0  0  0  0  0  0  0  0
    1.8530    0.1206   -0.0396 N   0  0  0  0  0  0  0  0  0  0  0  0
   -2.0999   -0.7487    0.8229 H   0  0  0  0  0  0  0  0  0  0  0  0
   -2.7155    0.6670   -0.0322 H   0  0  0  0  0  0  0  0  0  0  0  0
   -2.0600   -0.6971   -0.9398 H   0  0  0  0  0  0  0  0  0  0  0  0
   -0.4720    1.1494    0.9087 H   0  0  0  0  0  0  0  0  0  0  0  0
   -0.4176    1.1824   -0.8536 H   0  0  0  0  0  0  0  0  0  0  0  0
    0.4183   -1.1690    0.8997 H   0  0  0  0  0  0  0  0  0  0  0  0
    0.4497   -1.1489   -0.8742 H   0  0  0  0  0  0  0  0  0  0  0  0
    2.5814   -0.5842   -0.0268 H   0  0  0  0  0  0  0  0  0  0  0  0
    1.9791    0.7045    0.7809 H   0  0  0  0  0  0  0  0  0  0  0  0
  1  2  1  0  0  0  0
  2  3  1  0  0  0  0
  3  4  1  0  0  0  0
  1  5  1  0  0  0  0
  1  6  1  0  0  0  0
  1  7  1  0  0  0  0
  2  8  1  0  0  0  0
  2  9  1  0  0  0  0
  3 10  1  0  0  0  0
  3 11  1  0  0  0  0
  4 12  1  0  0  0  0
  4 13  1  0  0  0  0
M  END
