 xtb: 6.7.1 (edcfbbe)
          04062505073D

 29 29  0     0  0            999 V2000
   -3.3902   -0.6762   -0.3608 C   0  0  0  0  0  0  0  0  0  0  0  0
   -1.8927   -0.3915   -0.4442 C   0  0  0  0  0  0  0  0  0  0  0  0
   -1.5968   -0.4355   -1.4983 H   0  0  0  0  0  0  0  0  0  0  0  0
   -1.0777   -1.4258    0.3532 C   0  0  0  0  0  0  0  0  0  0  0  0
   -0.0346   -0.8034    1.2875 C   0  0  0  0  0  0  0  0  0  0  0  0
    0.7594    0.3646    0.6910 C   0  0  0  0  0  0  0  0  0  0  0  0
    1.1004    0.9891    1.5291 H   0  0  0  0  0  0  0  0  0  0  0  0
   -0.1290    1.2881   -0.1095 C   0  0  0  0  0  0  0  0  0  0  0  0
    0.3125    2.1620   -0.8336 O   0  0  0  0  0  0  0  0  0  0  0  0
   -1.5983    1.0348    0.0480 C   0  0  0  0  0  0  0  0  0  0  0  0
    2.0407    0.0136   -0.0986 C   0  0  0  0  0  0  0  0  0  0  0  0
    3.1383   -0.5186    0.8196 C   0  0  0  0  0  0  0  0  0  0  0  0
    1.7867   -0.9634   -1.2428 C   0  0  0  0  0  0  0  0  0  0  0  0
   -3.7330   -0.6076    0.6688 H   0  0  0  0  0  0  0  0  0  0  0  0
   -3.9500    0.0385   -0.9592 H   0  0  0  0  0  0  0  0  0  0  0  0
   -3.6023   -1.6753   -0.7330 H   0  0  0  0  0  0  0  0  0  0  0  0
   -1.7552   -2.0202    0.9687 H   0  0  0  0  0  0  0  0  0  0  0  0
   -0.5958   -2.1109   -0.3421 H   0  0  0  0  0  0  0  0  0  0  0  0
   -0.5466   -0.4404    2.1806 H   0  0  0  0  0  0  0  0  0  0  0  0
    0.6569   -1.5795    1.6142 H   0  0  0  0  0  0  0  0  0  0  0  0
   -1.8783    1.1254    1.0975 H   0  0  0  0  0  0  0  0  0  0  0  0
   -2.1595    1.7648   -0.5368 H   0  0  0  0  0  0  0  0  0  0  0  0
    2.3850    0.9595   -0.5348 H   0  0  0  0  0  0  0  0  0  0  0  0
    4.0499   -0.6785    0.2494 H   0  0  0  0  0  0  0  0  0  0  0  0
    2.8486   -1.4670    1.2649 H   0  0  0  0  0  0  0  0  0  0  0  0
    3.3536    0.1883    1.6173 H   0  0  0  0  0  0  0  0  0  0  0  0
    2.6814   -1.0506   -1.8552 H   0  0  0  0  0  0  0  0  0  0  0  0
    0.9772   -0.6085   -1.8767 H   0  0  0  0  0  0  0  0  0  0  0  0
    1.5403   -1.9512   -0.8640 H   0  0  0  0  0  0  0  0  0  0  0  0
  1  2  1  0  0  0  0
  2  3  1  0  0  0  0
  2  4  1  0  0  0  0
  4  5  1  0  0  0  0
  5  6  1  0  0  0  0
  6  7  1  0  0  0  0
  6  8  1  0  0  0  0
  8  9  2  0  0  0  0
  2 10  1  0  0  0  0
  8 10  1  0  0  0  0
  6 11  1  0  0  0  0
 11 12  1  0  0  0  0
 11 13  1  0  0  0  0
  1 14  1  0  0  0  0
  1 15  1  0  0  0  0
  1 16  1  0  0  0  0
  4 17  1  0  0  0  0
  4 18  1  0  0  0  0
  5 19  1  0  0  0  0
  5 20  1  0  0  0  0
 10 21  1  0  0  0  0
 10 22  1  0  0  0  0
 11 23  1  0  0  0  0
 12 24  1  0  0  0  0
 12 25  1  0  0  0  0
 12 26  1  0  0  0  0
 13 27  1  0  0  0  0
 13 28  1  0  0  0  0
 13 29  1  0  0  0  0
M  END
