 xtb: 6.7.1 (edcfbbe)
          04062518003D

 24 24  0     0  0            999 V2000
   -2.3521   -0.9789    0.3978 C   0  0  0  0  0  0  0  0  0  0  0  0
   -1.0500   -0.2794    0.8163 C   0  0  0  0  0  0  0  0  0  0  0  0
   -1.2098    0.1405    1.8194 H   0  0  0  0  0  0  0  0  0  0  0  0
   -0.6813    0.8588   -0.1447 C   0  0  0  0  0  0  0  0  0  0  0  0
   -0.7579    0.5168   -1.1815 H   0  0  0  0  0  0  0  0  0  0  0  0
    0.7615    1.3160    0.1247 C   0  0  0  0  0  0  0  0  0  0  0  0
    0.8204    1.6897    1.1636 H   0  0  0  0  0  0  0  0  0  0  0  0
    1.7590    0.1480   -0.0199 C   0  0  0  0  0  0  0  0  0  0  0  0
    2.2660    0.2505   -0.9835 H   0  0  0  0  0  0  0  0  0  0  0  0
    1.0138   -1.2049   -0.0092 C   0  0  0  0  0  0  0  0  0  0  0  0
    1.7174   -1.9869    0.3256 H   0  0  0  0  0  0  0  0  0  0  0  0
    0.0068   -1.2286    0.9652 O   0  0  0  0  0  0  0  0  0  0  0  0
    0.5648   -1.4894   -1.2958 O   0  0  0  0  0  0  0  0  0  0  0  0
    2.7652    0.1797    0.9569 O   0  0  0  0  0  0  0  0  0  0  0  0
    1.1313    2.3461   -0.7575 O   0  0  0  0  0  0  0  0  0  0  0  0
   -1.5734    1.9390   -0.0353 O   0  0  0  0  0  0  0  0  0  0  0  0
   -2.1646   -1.6362   -0.8365 O   0  0  0  0  0  0  0  0  0  0  0  0
   -3.1302   -0.2119    0.3177 H   0  0  0  0  0  0  0  0  0  0  0  0
   -2.6189   -1.7025    1.1772 H   0  0  0  0  0  0  0  0  0  0  0  0
   -0.3022   -1.9378   -1.2470 H   0  0  0  0  0  0  0  0  0  0  0  0
    2.3840   -0.0245    1.8244 H   0  0  0  0  0  0  0  0  0  0  0  0
    0.3554    2.9092   -0.9150 H   0  0  0  0  0  0  0  0  0  0  0  0
   -1.5661    2.2843    0.8708 H   0  0  0  0  0  0  0  0  0  0  0  0
   -3.0060   -2.0087   -1.1334 H   0  0  0  0  0  0  0  0  0  0  0  0
  1  2  1  0  0  0  0
  2  3  1  0  0  0  0
  2  4  1  0  0  0  0
  4  5  1  0  0  0  0
  4  6  1  0  0  0  0
  6  7  1  0  0  0  0
  6  8  1  0  0  0  0
  8  9  1  0  0  0  0
  8 10  1  0  0  0  0
 10 11  1  0  0  0  0
  2 12  1  0  0  0  0
 10 12  1  0  0  0  0
 10 13  1  0  0  0  0
  8 14  1  0  0  0  0
  6 15  1  0  0  0  0
  4 16  1  0  0  0  0
  1 17  1  0  0  0  0
  1 18  1  0  0  0  0
  1 19  1  0  0  0  0
 13 20  1  0  0  0  0
 14 21  1  0  0  0  0
 15 22  1  0  0  0  0
 16 23  1  0  0  0  0
 17 24  1  0  0  0  0
M  END
