 xtb: 6.7.1 (edcfbbe)
          04062518003D

 24 24  0     0  0            999 V2000
   -2.5640   -0.8826    0.2670 C   0  0  0  0  0  0  0  0  0  0  0  0
   -1.1428   -0.4262    0.6263 C   0  0  0  0  0  0  0  0  0  0  0  0
   -1.0562   -0.3340    1.7195 H   0  0  0  0  0  0  0  0  0  0  0  0
   -0.8305    0.9398    0.0026 C   0  0  0  0  0  0  0  0  0  0  0  0
   -1.0568    0.8918   -1.0745 H   0  0  0  0  0  0  0  0  0  0  0  0
    0.6568    1.2844    0.2008 C   0  0  0  0  0  0  0  0  0  0  0  0
    0.8309    1.4292    1.2755 H   0  0  0  0  0  0  0  0  0  0  0  0
    1.5423    0.1386   -0.3091 C   0  0  0  0  0  0  0  0  0  0  0  0
    1.4001    0.0003   -1.3869 H   0  0  0  0  0  0  0  0  0  0  0  0
    1.1043   -1.1680    0.3840 C   0  0  0  0  0  0  0  0  0  0  0  0
    1.2666   -1.0668    1.4801 H   0  0  0  0  0  0  0  0  0  0  0  0
   -0.2615   -1.4258    0.1487 O   0  0  0  0  0  0  0  0  0  0  0  0
    1.8318   -2.2156   -0.1361 O   0  0  0  0  0  0  0  0  0  0  0  0
    2.9066    0.4035   -0.1500 O   0  0  0  0  0  0  0  0  0  0  0  0
    0.9700    2.5227   -0.3869 O   0  0  0  0  0  0  0  0  0  0  0  0
   -1.6485    1.8942    0.6315 O   0  0  0  0  0  0  0  0  0  0  0  0
   -2.7198   -1.0883   -1.1117 O   0  0  0  0  0  0  0  0  0  0  0  0
   -3.2630   -0.0949    0.5507 H   0  0  0  0  0  0  0  0  0  0  0  0
   -2.7929   -1.7986    0.8243 H   0  0  0  0  0  0  0  0  0  0  0  0
    1.4542   -3.0590    0.1608 H   0  0  0  0  0  0  0  0  0  0  0  0
    3.1221    0.5235    0.7862 H   0  0  0  0  0  0  0  0  0  0  0  0
    1.0960    2.4167   -1.3407 H   0  0  0  0  0  0  0  0  0  0  0  0
   -1.3349    2.7771    0.3787 H   0  0  0  0  0  0  0  0  0  0  0  0
   -2.0832   -1.7636   -1.3897 H   0  0  0  0  0  0  0  0  0  0  0  0
  1  2  1  0  0  0  0
  2  3  1  0  0  0  0
  2  4  1  0  0  0  0
  4  5  1  0  0  0  0
  4  6  1  0  0  0  0
  6  7  1  0  0  0  0
  6  8  1  0  0  0  0
  8  9  1  0  0  0  0
  8 10  1  0  0  0  0
 10 11  1  0  0  0  0
  2 12  1  0  0  0  0
 10 12  1  0  0  0  0
 10 13  1  0  0  0  0
  8 14  1  0  0  0  0
  6 15  1  0  0  0  0
  4 16  1  0  0  0  0
  1 17  1  0  0  0  0
  1 18  1  0  0  0  0
  1 19  1  0  0  0  0
 13 20  1  0  0  0  0
 14 21  1  0  0  0  0
 15 22  1  0  0  0  0
 16 23  1  0  0  0  0
 17 24  1  0  0  0  0
M  END
