 xtb: 6.7.1 (edcfbbe)
          04032521083D

 12 12  0     0  0            999 V2000
   -2.1818   -0.0310   -0.0006 C   0  0  0  0  0  0  0  0  0  0  0  0
   -0.6939   -0.0401    0.0014 C   0  0  0  0  0  0  0  0  0  0  0  0
    0.1554   -1.1130    0.0005 C   0  0  0  0  0  0  0  0  0  0  0  0
    1.4235   -0.5990   -0.0007 N   0  0  0  0  0  0  0  0  0  0  0  0
    1.2915    0.7444   -0.0004 C   0  0  0  0  0  0  0  0  0  0  0  0
    0.0393    1.1155    0.0005 N   0  0  0  0  0  0  0  0  0  0  0  0
   -2.5541    0.4117   -0.9227 H   0  0  0  0  0  0  0  0  0  0  0  0
   -2.5594   -1.0459    0.0862 H   0  0  0  0  0  0  0  0  0  0  0  0
   -2.5535    0.5661    0.8292 H   0  0  0  0  0  0  0  0  0  0  0  0
   -0.0375   -2.1651    0.0012 H   0  0  0  0  0  0  0  0  0  0  0  0
    2.2804   -1.1273   -0.0010 H   0  0  0  0  0  0  0  0  0  0  0  0
    2.1218    1.4212   -0.0007 H   0  0  0  0  0  0  0  0  0  0  0  0
  1  2  1  0  0  0  0
  2  3  2  0  0  0  0
  3  4  4  0  0  0  0
  4  5  4  0  0  0  0
  2  6  4  0  0  0  0
  5  6  2  0  0  0  0
  1  7  1  0  0  0  0
  1  8  1  0  0  0  0
  1  9  1  0  0  0  0
  3 10  1  0  0  0  0
  4 11  1  0  0  0  0
  5 12  1  0  0  0  0
M  END
