 xtb: 6.7.1 (edcfbbe)
          04042523583D

 17 17  0     0  0            999 V2000
   -3.2991    0.2610   -0.0087 C   0  0  0  0  0  0  0  0  0  0  0  0
   -1.8164    0.0873    0.0087 C   0  0  0  0  0  0  0  0  0  0  0  0
   -0.9733    1.1983    0.0061 C   0  0  0  0  0  0  0  0  0  0  0  0
    0.3952    1.0438    0.0015 C   0  0  0  0  0  0  0  0  0  0  0  0
    0.9613   -0.2361   -0.0007 C   0  0  0  0  0  0  0  0  0  0  0  0
    0.1189   -1.3518    0.0004 C   0  0  0  0  0  0  0  0  0  0  0  0
   -1.2495   -1.1864    0.0051 C   0  0  0  0  0  0  0  0  0  0  0  0
    2.4032   -0.4034   -0.0029 C   0  0  0  0  0  0  0  0  0  0  0  0
    3.2255    0.4942   -0.0027 O   0  0  0  0  0  0  0  0  0  0  0  0
   -3.5896    1.1629    0.5232 H   0  0  0  0  0  0  0  0  0  0  0  0
   -3.6410    0.3550   -1.0392 H   0  0  0  0  0  0  0  0  0  0  0  0
   -3.7969   -0.5967    0.4349 H   0  0  0  0  0  0  0  0  0  0  0  0
   -1.4012    2.1893    0.0090 H   0  0  0  0  0  0  0  0  0  0  0  0
    1.0574    1.8969    0.0011 H   0  0  0  0  0  0  0  0  0  0  0  0
    0.5503   -2.3418   -0.0007 H   0  0  0  0  0  0  0  0  0  0  0  0
   -1.8940   -2.0524    0.0071 H   0  0  0  0  0  0  0  0  0  0  0  0
    2.7418   -1.4571   -0.0054 H   0  0  0  0  0  0  0  0  0  0  0  0
  1  2  1  0  0  0  0
  2  3  4  0  0  0  0
  3  4  4  0  0  0  0
  4  5  4  0  0  0  0
  5  6  4  0  0  0  0
  2  7  4  0  0  0  0
  6  7  4  0  0  0  0
  5  8  1  0  0  0  0
  8  9  2  0  0  0  0
  1 10  1  0  0  0  0
  1 11  1  0  0  0  0
  1 12  1  0  0  0  0
  3 13  1  0  0  0  0
  4 14  1  0  0  0  0
  6 15  1  0  0  0  0
  7 16  1  0  0  0  0
  8 17  1  0  0  0  0
M  END
