 xtb: 6.7.1 (edcfbbe)
          04042519583D

 16 16  0     0  0            999 V2000
    2.4592   -1.1080    0.4591 C   0  0  0  0  0  0  0  0  0  0  0  0
    1.6973    0.0837   -0.0367 C   0  0  0  0  0  0  0  0  0  0  0  0
    2.2612    1.0935   -0.4273 O   0  0  0  0  0  0  0  0  0  0  0  0
    0.2150    0.0224   -0.0063 C   0  0  0  0  0  0  0  0  0  0  0  0
   -0.5066    1.1987    0.2081 C   0  0  0  0  0  0  0  0  0  0  0  0
   -1.8879    1.1503    0.2292 C   0  0  0  0  0  0  0  0  0  0  0  0
   -2.5030   -0.0776    0.0259 C   0  0  0  0  0  0  0  0  0  0  0  0
   -1.8329   -1.1937   -0.2169 N   0  0  0  0  0  0  0  0  0  0  0  0
   -0.5139   -1.1460   -0.2352 C   0  0  0  0  0  0  0  0  0  0  0  0
    2.9411   -0.8241    1.3940 H   0  0  0  0  0  0  0  0  0  0  0  0
    3.2514   -1.3497   -0.2461 H   0  0  0  0  0  0  0  0  0  0  0  0
    1.8245   -1.9676    0.6348 H   0  0  0  0  0  0  0  0  0  0  0  0
    0.0326    2.1219    0.3632 H   0  0  0  0  0  0  0  0  0  0  0  0
   -2.4739    2.0380    0.4011 H   0  0  0  0  0  0  0  0  0  0  0  0
   -3.5789   -0.1783    0.0491 H   0  0  0  0  0  0  0  0  0  0  0  0
   -0.0271   -2.0811   -0.4740 H   0  0  0  0  0  0  0  0  0  0  0  0
  1  2  1  0  0  0  0
  2  3  2  0  0  0  0
  2  4  1  0  0  0  0
  4  5  4  0  0  0  0
  5  6  4  0  0  0  0
  6  7  4  0  0  0  0
  7  8  4  0  0  0  0
  4  9  4  0  0  0  0
  8  9  4  0  0  0  0
  1 10  1  0  0  0  0
  1 11  1  0  0  0  0
  1 12  1  0  0  0  0
  5 13  1  0  0  0  0
  6 14  1  0  0  0  0
  7 15  1  0  0  0  0
  9 16  1  0  0  0  0
M  END
