 xtb: 6.7.1 (edcfbbe)
          04032521083D

 18 18  0     0  0            999 V2000
   -1.8304   -0.0842   -0.6256 C   0  0  0  0  0  0  0  0  0  0  0  0
   -0.8459   -0.0231    0.5393 C   0  0  0  0  0  0  0  0  0  0  0  0
    0.1562   -1.1799    0.5022 C   0  0  0  0  0  0  0  0  0  0  0  0
    1.2116   -0.7255   -0.5041 C   0  0  0  0  0  0  0  0  0  0  0  0
    1.3255    0.7916   -0.2932 C   0  0  0  0  0  0  0  0  0  0  0  0
    0.0527    1.2203    0.4616 C   0  0  0  0  0  0  0  0  0  0  0  0
   -1.3069   -0.0358   -1.5764 H   0  0  0  0  0  0  0  0  0  0  0  0
   -2.4028   -1.0087   -0.5916 H   0  0  0  0  0  0  0  0  0  0  0  0
   -2.5266    0.7502   -0.5750 H   0  0  0  0  0  0  0  0  0  0  0  0
   -1.4170   -0.0325    1.4722 H   0  0  0  0  0  0  0  0  0  0  0  0
    0.6111   -1.2999    1.4869 H   0  0  0  0  0  0  0  0  0  0  0  0
   -0.3083   -2.1238    0.2203 H   0  0  0  0  0  0  0  0  0  0  0  0
    2.1641   -1.2317   -0.3537 H   0  0  0  0  0  0  0  0  0  0  0  0
    0.8756   -0.9446   -1.5179 H   0  0  0  0  0  0  0  0  0  0  0  0
    2.2109    1.0290    0.2962 H   0  0  0  0  0  0  0  0  0  0  0  0
    1.4174    1.3120   -1.2457 H   0  0  0  0  0  0  0  0  0  0  0  0
    0.3094    1.5528    1.4678 H   0  0  0  0  0  0  0  0  0  0  0  0
   -0.4561    2.0429   -0.0389 H   0  0  0  0  0  0  0  0  0  0  0  0
  1  2  1  0  0  0  0
  2  3  1  0  0  0  0
  3  4  1  0  0  0  0
  4  5  1  0  0  0  0
  2  6  1  0  0  0  0
  5  6  1  0  0  0  0
  1  7  1  0  0  0  0
  1  8  1  0  0  0  0
  1  9  1  0  0  0  0
  2 10  1  0  0  0  0
  3 11  1  0  0  0  0
  3 12  1  0  0  0  0
  4 13  1  0  0  0  0
  4 14  1  0  0  0  0
  5 15  1  0  0  0  0
  5 16  1  0  0  0  0
  6 17  1  0  0  0  0
  6 18  1  0  0  0  0
M  END
