 xtb: 6.7.1 (edcfbbe)
          04062518003D

 24 24  0     0  0            999 V2000
   -2.2776   -1.1131   -0.1225 C   0  0  0  0  0  0  0  0  0  0  0  0
   -0.9010   -0.5646    0.2554 C   0  0  0  0  0  0  0  0  0  0  0  0
   -0.7797   -0.5962    1.3476 H   0  0  0  0  0  0  0  0  0  0  0  0
   -0.7298    0.8954   -0.2037 C   0  0  0  0  0  0  0  0  0  0  0  0
   -1.1760    1.0175   -1.2040 H   0  0  0  0  0  0  0  0  0  0  0  0
    0.7692    1.2603   -0.3272 C   0  0  0  0  0  0  0  0  0  0  0  0
    0.8728    2.2794    0.0648 H   0  0  0  0  0  0  0  0  0  0  0  0
    1.6391    0.2944    0.4927 C   0  0  0  0  0  0  0  0  0  0  0  0
    2.6969    0.5170    0.2849 H   0  0  0  0  0  0  0  0  0  0  0  0
    1.3979   -1.1468    0.0083 C   0  0  0  0  0  0  0  0  0  0  0  0
    1.6704   -1.8284    0.8366 H   0  0  0  0  0  0  0  0  0  0  0  0
    0.0580   -1.4016   -0.3639 O   0  0  0  0  0  0  0  0  0  0  0  0
    2.1916   -1.3620   -1.1085 O   0  0  0  0  0  0  0  0  0  0  0  0
    1.3782    0.3342    1.8702 O   0  0  0  0  0  0  0  0  0  0  0  0
    1.2014    1.3106   -1.6620 O   0  0  0  0  0  0  0  0  0  0  0  0
   -1.3180    1.7895    0.7067 O   0  0  0  0  0  0  0  0  0  0  0  0
   -3.2573   -0.2889    0.4643 O   0  0  0  0  0  0  0  0  0  0  0  0
   -2.3521   -2.1448    0.2395 H   0  0  0  0  0  0  0  0  0  0  0  0
   -2.3609   -1.1137   -1.2164 H   0  0  0  0  0  0  0  0  0  0  0  0
    2.0348   -2.2551   -1.4543 H   0  0  0  0  0  0  0  0  0  0  0  0
    1.5084    1.2350    2.2011 H   0  0  0  0  0  0  0  0  0  0  0  0
    1.4436    0.4167   -1.9565 H   0  0  0  0  0  0  0  0  0  0  0  0
   -2.2341    1.5035    0.8601 H   0  0  0  0  0  0  0  0  0  0  0  0
   -4.1365   -0.6310    0.2494 H   0  0  0  0  0  0  0  0  0  0  0  0
  1  2  1  0  0  0  0
  2  3  1  0  0  0  0
  2  4  1  0  0  0  0
  4  5  1  0  0  0  0
  4  6  1  0  0  0  0
  6  7  1  0  0  0  0
  6  8  1  0  0  0  0
  8  9  1  0  0  0  0
  8 10  1  0  0  0  0
 10 11  1  0  0  0  0
  2 12  1  0  0  0  0
 10 12  1  0  0  0  0
 10 13  1  0  0  0  0
  8 14  1  0  0  0  0
  6 15  1  0  0  0  0
  4 16  1  0  0  0  0
  1 17  1  0  0  0  0
  1 18  1  0  0  0  0
  1 19  1  0  0  0  0
 13 20  1  0  0  0  0
 14 21  1  0  0  0  0
 15 22  1  0  0  0  0
 16 23  1  0  0  0  0
 17 24  1  0  0  0  0
M  END
