 xtb: 6.7.1 (edcfbbe)
          04052508533D

 22 23  0     0  0            999 V2000
    1.6782    1.4220   -1.0833 C   0  0  0  0  0  0  0  0  0  0  0  0
    3.0514    1.5411   -1.1856 C   0  0  0  0  0  0  0  0  0  0  0  0
    3.8761    0.7439   -0.4066 C   0  0  0  0  0  0  0  0  0  0  0  0
    3.3160   -0.1697    0.4800 C   0  0  0  0  0  0  0  0  0  0  0  0
    1.9412   -0.2944    0.5778 C   0  0  0  0  0  0  0  0  0  0  0  0
    1.1114    0.4970   -0.2101 C   0  0  0  0  0  0  0  0  0  0  0  0
   -0.3555    0.3772   -0.1128 C   0  0  0  0  0  0  0  0  0  0  0  0
   -1.1212    1.5193    0.1014 C   0  0  0  0  0  0  0  0  0  0  0  0
   -2.4994    1.4442    0.2026 C   0  0  0  0  0  0  0  0  0  0  0  0
   -3.1482    0.2170    0.0827 C   0  0  0  0  0  0  0  0  0  0  0  0
   -2.3939   -0.9310   -0.1484 C   0  0  0  0  0  0  0  0  0  0  0  0
   -1.0062   -0.8519   -0.2448 C   0  0  0  0  0  0  0  0  0  0  0  0
   -0.1205   -2.2911   -0.5869 Cl  0  0  0  0  0  0  0  0  0  0  0  0
   -3.1888   -2.4492   -0.3195 Cl  0  0  0  0  0  0  0  0  0  0  0  0
   -4.8617    0.1120    0.2102 Cl  0  0  0  0  0  0  0  0  0  0  0  0
   -3.4234    2.8694    0.4802 Cl  0  0  0  0  0  0  0  0  0  0  0  0
    4.3358   -1.1620    1.4709 Cl  0  0  0  0  0  0  0  0  0  0  0  0
    5.5967    0.8887   -0.5362 Cl  0  0  0  0  0  0  0  0  0  0  0  0
    1.0410    2.0351   -1.6990 H   0  0  0  0  0  0  0  0  0  0  0  0
    3.4937    2.2485   -1.8672 H   0  0  0  0  0  0  0  0  0  0  0  0
    1.5249   -0.9954    1.2818 H   0  0  0  0  0  0  0  0  0  0  0  0
   -0.6327    2.4740    0.2077 H   0  0  0  0  0  0  0  0  0  0  0  0
  1  2  4  0  0  0  0
  2  3  4  0  0  0  0
  3  4  4  0  0  0  0
  4  5  4  0  0  0  0
  1  6  4  0  0  0  0
  5  6  4  0  0  0  0
  6  7  1  0  0  0  0
  7  8  4  0  0  0  0
  8  9  4  0  0  0  0
  9 10  4  0  0  0  0
 10 11  4  0  0  0  0
  7 12  4  0  0  0  0
 11 12  4  0  0  0  0
 12 13  1  0  0  0  0
 11 14  1  0  0  0  0
 10 15  1  0  0  0  0
  9 16  1  0  0  0  0
  4 17  1  0  0  0  0
  3 18  1  0  0  0  0
  1 19  1  0  0  0  0
  2 20  1  0  0  0  0
  5 21  1  0  0  0  0
  8 22  1  0  0  0  0
M  END
