 xtb: 6.7.1 (edcfbbe)
          04062520053D

 27 27  0     0  0            999 V2000
   -3.3211    0.4289   -0.3108 C   0  0  0  0  0  0  0  0  0  0  0  0
   -1.8594    0.5024   -0.0227 C   0  0  0  0  0  0  0  0  0  0  0  0
   -1.0971    1.5739   -0.2064 C   0  0  0  0  0  0  0  0  0  0  0  0
    0.3627    1.4924    0.1048 C   0  0  0  0  0  0  0  0  0  0  0  0
    0.9599    0.2458   -0.5794 C   0  0  0  0  0  0  0  0  0  0  0  0
    0.9418    0.4391   -1.6562 H   0  0  0  0  0  0  0  0  0  0  0  0
    0.1033   -1.0100   -0.3050 C   0  0  0  0  0  0  0  0  0  0  0  0
   -1.1677   -0.7237    0.5218 C   0  0  0  0  0  0  0  0  0  0  0  0
   -0.8706   -0.5087    1.5648 H   0  0  0  0  0  0  0  0  0  0  0  0
   -2.0449   -1.8314    0.5087 O   0  0  0  0  0  0  0  0  0  0  0  0
    2.3957    0.0165   -0.1743 C   0  0  0  0  0  0  0  0  0  0  0  0
    3.3500   -0.1156   -1.0830 C   0  0  0  0  0  0  0  0  0  0  0  0
    2.6937   -0.0589    1.2938 C   0  0  0  0  0  0  0  0  0  0  0  0
   -3.6834    1.3786   -0.6940 H   0  0  0  0  0  0  0  0  0  0  0  0
   -3.8663    0.1693    0.5952 H   0  0  0  0  0  0  0  0  0  0  0  0
   -3.5151   -0.3568   -1.0388 H   0  0  0  0  0  0  0  0  0  0  0  0
   -1.5018    2.4970   -0.5907 H   0  0  0  0  0  0  0  0  0  0  0  0
    0.8911    2.3817   -0.2382 H   0  0  0  0  0  0  0  0  0  0  0  0
    0.4965    1.4110    1.1864 H   0  0  0  0  0  0  0  0  0  0  0  0
   -0.2246   -1.4417   -1.2522 H   0  0  0  0  0  0  0  0  0  0  0  0
    0.6998   -1.7662    0.2097 H   0  0  0  0  0  0  0  0  0  0  0  0
   -1.5819   -2.6060    0.8527 H   0  0  0  0  0  0  0  0  0  0  0  0
    4.3759   -0.2961   -0.8089 H   0  0  0  0  0  0  0  0  0  0  0  0
    3.1466   -0.0472   -2.1383 H   0  0  0  0  0  0  0  0  0  0  0  0
    3.6435   -0.5581    1.4657 H   0  0  0  0  0  0  0  0  0  0  0  0
    2.7598    0.9451    1.7115 H   0  0  0  0  0  0  0  0  0  0  0  0
    1.9109   -0.5932    1.8269 H   0  0  0  0  0  0  0  0  0  0  0  0
  1  2  1  0  0  0  0
  2  3  2  0  0  0  0
  3  4  1  0  0  0  0
  4  5  1  0  0  0  0
  5  6  1  0  0  0  0
  5  7  1  0  0  0  0
  2  8  1  0  0  0  0
  7  8  1  0  0  0  0
  8  9  1  0  0  0  0
  8 10  1  0  0  0  0
  5 11  1  0  0  0  0
 11 12  2  0  0  0  0
 11 13  1  0  0  0  0
  1 14  1  0  0  0  0
  1 15  1  0  0  0  0
  1 16  1  0  0  0  0
  3 17  1  0  0  0  0
  4 18  1  0  0  0  0
  4 19  1  0  0  0  0
  7 20  1  0  0  0  0
  7 21  1  0  0  0  0
 10 22  1  0  0  0  0
 12 23  1  0  0  0  0
 12 24  1  0  0  0  0
 13 25  1  0  0  0  0
 13 26  1  0  0  0  0
 13 27  1  0  0  0  0
M  END
