 xtb: 6.7.1 (edcfbbe)
          04052508553D

 22 23  0     0  0            999 V2000
   -4.3917   -0.0007    0.0005 C   0  0  0  0  0  0  0  0  0  0  0  0
   -3.6977   -0.5675    1.0567 C   0  0  0  0  0  0  0  0  0  0  0  0
   -2.3144   -0.5706    1.0574 C   0  0  0  0  0  0  0  0  0  0  0  0
   -1.6151    0.0007    0.0000 C   0  0  0  0  0  0  0  0  0  0  0  0
   -2.3153    0.5716   -1.0569 C   0  0  0  0  0  0  0  0  0  0  0  0
   -3.6986    0.5670   -1.0557 C   0  0  0  0  0  0  0  0  0  0  0  0
   -0.1377    0.0005   -0.0002 C   0  0  0  0  0  0  0  0  0  0  0  0
    0.5914    1.1879    0.0615 C   0  0  0  0  0  0  0  0  0  0  0  0
    1.9762    1.2054    0.0640 C   0  0  0  0  0  0  0  0  0  0  0  0
    2.6548   -0.0005   -0.0000 C   0  0  0  0  0  0  0  0  0  0  0  0
    1.9753   -1.2059   -0.0641 C   0  0  0  0  0  0  0  0  0  0  0  0
    0.5906   -1.1874   -0.0619 C   0  0  0  0  0  0  0  0  0  0  0  0
   -0.2562   -2.6919   -0.1702 Cl  0  0  0  0  0  0  0  0  0  0  0  0
    4.3823   -0.0011    0.0003 Cl  0  0  0  0  0  0  0  0  0  0  0  0
   -0.2544    2.6930    0.1694 Cl  0  0  0  0  0  0  0  0  0  0  0  0
   -5.4709   -0.0015    0.0006 H   0  0  0  0  0  0  0  0  0  0  0  0
   -4.2341   -1.0091    1.8826 H   0  0  0  0  0  0  0  0  0  0  0  0
   -1.7703   -1.0060    1.8822 H   0  0  0  0  0  0  0  0  0  0  0  0
   -1.7720    1.0075   -1.8819 H   0  0  0  0  0  0  0  0  0  0  0  0
   -4.2358    1.0080   -1.8815 H   0  0  0  0  0  0  0  0  0  0  0  0
    2.5100    2.1393    0.1171 H   0  0  0  0  0  0  0  0  0  0  0  0
    2.5084   -2.1402   -0.1169 H   0  0  0  0  0  0  0  0  0  0  0  0
  1  2  4  0  0  0  0
  2  3  4  0  0  0  0
  3  4  4  0  0  0  0
  4  5  4  0  0  0  0
  1  6  4  0  0  0  0
  5  6  4  0  0  0  0
  4  7  1  0  0  0  0
  7  8  4  0  0  0  0
  8  9  4  0  0  0  0
  9 10  4  0  0  0  0
 10 11  4  0  0  0  0
  7 12  4  0  0  0  0
 11 12  4  0  0  0  0
 12 13  1  0  0  0  0
 10 14  1  0  0  0  0
  8 15  1  0  0  0  0
  1 16  1  0  0  0  0
  2 17  1  0  0  0  0
  3 18  1  0  0  0  0
  5 19  1  0  0  0  0
  6 20  1  0  0  0  0
  9 21  1  0  0  0  0
 11 22  1  0  0  0  0
M  END
