 xtb: 6.7.1 (edcfbbe)
          04062505073D

 29 29  0     0  0            999 V2000
   -3.5271    0.2018   -0.4068 C   0  0  0  0  0  0  0  0  0  0  0  0
   -2.0489   -0.1518   -0.5496 C   0  0  0  0  0  0  0  0  0  0  0  0
   -1.8693   -0.4505   -1.5877 H   0  0  0  0  0  0  0  0  0  0  0  0
   -1.6634   -1.3270    0.3441 C   0  0  0  0  0  0  0  0  0  0  0  0
   -0.2068   -1.6836    0.0805 C   0  0  0  0  0  0  0  0  0  0  0  0
    0.7319   -0.5632    0.5387 C   0  0  0  0  0  0  0  0  0  0  0  0
    1.0236   -0.7464    1.5797 H   0  0  0  0  0  0  0  0  0  0  0  0
    0.0981    0.8092    0.5467 C   0  0  0  0  0  0  0  0  0  0  0  0
    0.6167    1.7224    1.1690 O   0  0  0  0  0  0  0  0  0  0  0  0
   -1.1747    1.0654   -0.2172 C   0  0  0  0  0  0  0  0  0  0  0  0
    2.0435   -0.5433   -0.2926 C   0  0  0  0  0  0  0  0  0  0  0  0
    1.8498    0.1368   -1.6465 C   0  0  0  0  0  0  0  0  0  0  0  0
    3.1741    0.1323    0.4781 C   0  0  0  0  0  0  0  0  0  0  0  0
   -3.7825    1.0432   -1.0461 H   0  0  0  0  0  0  0  0  0  0  0  0
   -4.1473   -0.6454   -0.6892 H   0  0  0  0  0  0  0  0  0  0  0  0
   -3.7574    0.4665    0.6230 H   0  0  0  0  0  0  0  0  0  0  0  0
   -1.8009   -1.0580    1.3938 H   0  0  0  0  0  0  0  0  0  0  0  0
   -2.3027   -2.1831    0.1252 H   0  0  0  0  0  0  0  0  0  0  0  0
    0.0622   -2.6032    0.6021 H   0  0  0  0  0  0  0  0  0  0  0  0
   -0.0818   -1.8648   -0.9883 H   0  0  0  0  0  0  0  0  0  0  0  0
   -1.7402    1.7917    0.3730 H   0  0  0  0  0  0  0  0  0  0  0  0
   -0.8818    1.5857   -1.1330 H   0  0  0  0  0  0  0  0  0  0  0  0
    2.3186   -1.5899   -0.4631 H   0  0  0  0  0  0  0  0  0  0  0  0
    2.7331   -0.0070   -2.2639 H   0  0  0  0  0  0  0  0  0  0  0  0
    1.7005    1.2065   -1.5128 H   0  0  0  0  0  0  0  0  0  0  0  0
    0.9936   -0.2720   -2.1762 H   0  0  0  0  0  0  0  0  0  0  0  0
    3.4078   -0.4209    1.3849 H   0  0  0  0  0  0  0  0  0  0  0  0
    2.8877    1.1437    0.7590 H   0  0  0  0  0  0  0  0  0  0  0  0
    4.0702    0.1844   -0.1355 H   0  0  0  0  0  0  0  0  0  0  0  0
  1  2  1  0  0  0  0
  2  3  1  0  0  0  0
  2  4  1  0  0  0  0
  4  5  1  0  0  0  0
  5  6  1  0  0  0  0
  6  7  1  0  0  0  0
  6  8  1  0  0  0  0
  8  9  2  0  0  0  0
  2 10  1  0  0  0  0
  8 10  1  0  0  0  0
  6 11  1  0  0  0  0
 11 12  1  0  0  0  0
 11 13  1  0  0  0  0
  1 14  1  0  0  0  0
  1 15  1  0  0  0  0
  1 16  1  0  0  0  0
  4 17  1  0  0  0  0
  4 18  1  0  0  0  0
  5 19  1  0  0  0  0
  5 20  1  0  0  0  0
 10 21  1  0  0  0  0
 10 22  1  0  0  0  0
 11 23  1  0  0  0  0
 12 24  1  0  0  0  0
 12 25  1  0  0  0  0
 12 26  1  0  0  0  0
 13 27  1  0  0  0  0
 13 28  1  0  0  0  0
 13 29  1  0  0  0  0
M  END
