 xtb: 6.7.1 (edcfbbe)
          04062518003D

 24 24  0     0  0            999 V2000
   -1.8219   -0.8566   -0.8751 C   0  0  0  0  0  0  0  0  0  0  0  0
   -1.3377   -0.1257    0.3963 C   0  0  0  0  0  0  0  0  0  0  0  0
   -2.1700   -0.0515    1.1045 H   0  0  0  0  0  0  0  0  0  0  0  0
   -0.8454    1.3083    0.0796 C   0  0  0  0  0  0  0  0  0  0  0  0
   -1.1428    1.5907   -0.9355 H   0  0  0  0  0  0  0  0  0  0  0  0
    0.6891    1.3714    0.1515 C   0  0  0  0  0  0  0  0  0  0  0  0
    0.9999    1.4773    1.2045 H   0  0  0  0  0  0  0  0  0  0  0  0
    1.3071    0.0714   -0.3814 C   0  0  0  0  0  0  0  0  0  0  0  0
    0.9734   -0.0932   -1.4158 H   0  0  0  0  0  0  0  0  0  0  0  0
    0.8591   -1.1105    0.5074 C   0  0  0  0  0  0  0  0  0  0  0  0
    1.5850   -1.2130    1.3284 H   0  0  0  0  0  0  0  0  0  0  0  0
   -0.3708   -0.8736    1.1300 O   0  0  0  0  0  0  0  0  0  0  0  0
    0.8825   -2.3179   -0.1979 O   0  0  0  0  0  0  0  0  0  0  0  0
    2.7046    0.2334   -0.3495 O   0  0  0  0  0  0  0  0  0  0  0  0
    1.1208    2.4800   -0.5917 O   0  0  0  0  0  0  0  0  0  0  0  0
   -1.4594    2.2605    0.9054 O   0  0  0  0  0  0  0  0  0  0  0  0
   -1.8804   -2.2525   -0.7036 O   0  0  0  0  0  0  0  0  0  0  0  0
   -1.1296   -0.6918   -1.7029 H   0  0  0  0  0  0  0  0  0  0  0  0
   -2.7986   -0.4497   -1.1569 H   0  0  0  0  0  0  0  0  0  0  0  0
   -0.0260   -2.5407   -0.4888 H   0  0  0  0  0  0  0  0  0  0  0  0
    3.1313   -0.5600   -0.7024 H   0  0  0  0  0  0  0  0  0  0  0  0
    2.0882    2.4428   -0.6549 H   0  0  0  0  0  0  0  0  0  0  0  0
   -1.1291    2.1779    1.8122 H   0  0  0  0  0  0  0  0  0  0  0  0
   -2.5091   -2.4713   -0.0003 H   0  0  0  0  0  0  0  0  0  0  0  0
  1  2  1  0  0  0  0
  2  3  1  0  0  0  0
  2  4  1  0  0  0  0
  4  5  1  0  0  0  0
  4  6  1  0  0  0  0
  6  7  1  0  0  0  0
  6  8  1  0  0  0  0
  8  9  1  0  0  0  0
  8 10  1  0  0  0  0
 10 11  1  0  0  0  0
  2 12  1  0  0  0  0
 10 12  1  0  0  0  0
 10 13  1  0  0  0  0
  8 14  1  0  0  0  0
  6 15  1  0  0  0  0
  4 16  1  0  0  0  0
  1 17  1  0  0  0  0
  1 18  1  0  0  0  0
  1 19  1  0  0  0  0
 13 20  1  0  0  0  0
 14 21  1  0  0  0  0
 15 22  1  0  0  0  0
 16 23  1  0  0  0  0
 17 24  1  0  0  0  0
M  END
