 xtb: 6.7.1 (edcfbbe)
          04062518003D

 24 24  0     0  0            999 V2000
   -2.4072   -0.7074   -0.0048 C   0  0  0  0  0  0  0  0  0  0  0  0
   -0.9701   -0.3014    0.3464 C   0  0  0  0  0  0  0  0  0  0  0  0
   -0.9084   -0.0429    1.4152 H   0  0  0  0  0  0  0  0  0  0  0  0
   -0.5234    0.9111   -0.4938 C   0  0  0  0  0  0  0  0  0  0  0  0
   -0.5368    0.6199   -1.5500 H   0  0  0  0  0  0  0  0  0  0  0  0
    0.9156    1.3286   -0.1107 C   0  0  0  0  0  0  0  0  0  0  0  0
    0.8596    2.1415    0.6231 H   0  0  0  0  0  0  0  0  0  0  0  0
    1.6909    0.1502    0.5273 C   0  0  0  0  0  0  0  0  0  0  0  0
    2.7525    0.2731    0.2777 H   0  0  0  0  0  0  0  0  0  0  0  0
    1.2251   -1.1613   -0.1154 C   0  0  0  0  0  0  0  0  0  0  0  0
    1.7651   -2.0069    0.3377 H   0  0  0  0  0  0  0  0  0  0  0  0
   -0.1305   -1.4287    0.1110 O   0  0  0  0  0  0  0  0  0  0  0  0
    1.5086   -1.0614   -1.4812 O   0  0  0  0  0  0  0  0  0  0  0  0
    1.4976    0.0539    1.9149 O   0  0  0  0  0  0  0  0  0  0  0  0
    1.6216    1.8679   -1.1970 O   0  0  0  0  0  0  0  0  0  0  0  0
   -1.4309    1.9774   -0.3985 O   0  0  0  0  0  0  0  0  0  0  0  0
   -2.9646   -1.6420    0.8815 O   0  0  0  0  0  0  0  0  0  0  0  0
   -2.4089   -1.1918   -0.9828 H   0  0  0  0  0  0  0  0  0  0  0  0
   -3.0193    0.2019   -0.0565 H   0  0  0  0  0  0  0  0  0  0  0  0
    1.2771   -1.8915   -1.9250 H   0  0  0  0  0  0  0  0  0  0  0  0
    2.0428    0.7131    2.3689 H   0  0  0  0  0  0  0  0  0  0  0  0
    1.7435    1.1756   -1.8652 H   0  0  0  0  0  0  0  0  0  0  0  0
   -1.3972    2.3628    0.4898 H   0  0  0  0  0  0  0  0  0  0  0  0
   -2.9625   -1.2806    1.7794 H   0  0  0  0  0  0  0  0  0  0  0  0
  1  2  1  0  0  0  0
  2  3  1  0  0  0  0
  2  4  1  0  0  0  0
  4  5  1  0  0  0  0
  4  6  1  0  0  0  0
  6  7  1  0  0  0  0
  6  8  1  0  0  0  0
  8  9  1  0  0  0  0
  8 10  1  0  0  0  0
 10 11  1  0  0  0  0
  2 12  1  0  0  0  0
 10 12  1  0  0  0  0
 10 13  1  0  0  0  0
  8 14  1  0  0  0  0
  6 15  1  0  0  0  0
  4 16  1  0  0  0  0
  1 17  1  0  0  0  0
  1 18  1  0  0  0  0
  1 19  1  0  0  0  0
 13 20  1  0  0  0  0
 14 21  1  0  0  0  0
 15 22  1  0  0  0  0
 16 23  1  0  0  0  0
 17 24  1  0  0  0  0
M  END
