 xtb: 6.7.1 (edcfbbe)
          04062518003D

 24 24  0     0  0            999 V2000
   -2.5521   -0.8971    0.3182 C   0  0  0  0  0  0  0  0  0  0  0  0
   -1.1175   -0.4447    0.6344 C   0  0  0  0  0  0  0  0  0  0  0  0
   -0.9822   -0.3980    1.7263 H   0  0  0  0  0  0  0  0  0  0  0  0
   -0.8349    0.9459    0.0265 C   0  0  0  0  0  0  0  0  0  0  0  0
   -1.0828    0.9039   -1.0412 H   0  0  0  0  0  0  0  0  0  0  0  0
    0.6497    1.2867    0.2077 C   0  0  0  0  0  0  0  0  0  0  0  0
    0.8709    1.3948    1.2782 H   0  0  0  0  0  0  0  0  0  0  0  0
    1.5317    0.1509   -0.3413 C   0  0  0  0  0  0  0  0  0  0  0  0
    1.3690    0.0552   -1.4283 H   0  0  0  0  0  0  0  0  0  0  0  0
    1.1238   -1.1741    0.3294 C   0  0  0  0  0  0  0  0  0  0  0  0
    1.3146   -1.0990    1.4120 H   0  0  0  0  0  0  0  0  0  0  0  0
   -0.2475   -1.4201    0.0875 O   0  0  0  0  0  0  0  0  0  0  0  0
    1.8412   -2.2624   -0.1039 O   0  0  0  0  0  0  0  0  0  0  0  0
    2.8876    0.3920   -0.0735 O   0  0  0  0  0  0  0  0  0  0  0  0
    1.0110    2.5195   -0.3650 O   0  0  0  0  0  0  0  0  0  0  0  0
   -1.6747    1.9330    0.5607 O   0  0  0  0  0  0  0  0  0  0  0  0
   -2.7464   -1.1137   -1.0537 O   0  0  0  0  0  0  0  0  0  0  0  0
   -3.2427   -0.1028    0.6066 H   0  0  0  0  0  0  0  0  0  0  0  0
   -2.7726   -1.8054    0.8906 H   0  0  0  0  0  0  0  0  0  0  0  0
    1.7290   -2.3834   -1.0602 H   0  0  0  0  0  0  0  0  0  0  0  0
    3.0698    1.3297   -0.2511 H   0  0  0  0  0  0  0  0  0  0  0  0
    0.5955    2.6193   -1.2337 H   0  0  0  0  0  0  0  0  0  0  0  0
   -1.4330    2.1177    1.4799 H   0  0  0  0  0  0  0  0  0  0  0  0
   -2.1464   -1.8196   -1.3351 H   0  0  0  0  0  0  0  0  0  0  0  0
  1  2  1  0  0  0  0
  2  3  1  0  0  0  0
  2  4  1  0  0  0  0
  4  5  1  0  0  0  0
  4  6  1  0  0  0  0
  6  7  1  0  0  0  0
  6  8  1  0  0  0  0
  8  9  1  0  0  0  0
  8 10  1  0  0  0  0
 10 11  1  0  0  0  0
  2 12  1  0  0  0  0
 10 12  1  0  0  0  0
 10 13  1  0  0  0  0
  8 14  1  0  0  0  0
  6 15  1  0  0  0  0
  4 16  1  0  0  0  0
  1 17  1  0  0  0  0
  1 18  1  0  0  0  0
  1 19  1  0  0  0  0
 13 20  1  0  0  0  0
 14 21  1  0  0  0  0
 15 22  1  0  0  0  0
 16 23  1  0  0  0  0
 17 24  1  0  0  0  0
M  END
