 xtb: 6.7.1 (edcfbbe)
          04062518003D

 24 24  0     0  0            999 V2000
   -2.5242   -0.7520   -0.4363 C   0  0  0  0  0  0  0  0  0  0  0  0
   -1.1614   -0.3694    0.1434 C   0  0  0  0  0  0  0  0  0  0  0  0
   -1.2434   -0.3752    1.2430 H   0  0  0  0  0  0  0  0  0  0  0  0
   -0.7069    1.0209   -0.3325 C   0  0  0  0  0  0  0  0  0  0  0  0
   -0.6775    1.0295   -1.4277 H   0  0  0  0  0  0  0  0  0  0  0  0
    0.7070    1.3206    0.1978 C   0  0  0  0  0  0  0  0  0  0  0  0
    0.6654    1.3915    1.3007 H   0  0  0  0  0  0  0  0  0  0  0  0
    1.6638    0.1798   -0.1821 C   0  0  0  0  0  0  0  0  0  0  0  0
    1.7626    0.1553   -1.2724 H   0  0  0  0  0  0  0  0  0  0  0  0
    1.0597   -1.1607    0.3055 C   0  0  0  0  0  0  0  0  0  0  0  0
    0.9845   -1.1481    1.4072 H   0  0  0  0  0  0  0  0  0  0  0  0
   -0.2211   -1.3458   -0.2602 O   0  0  0  0  0  0  0  0  0  0  0  0
    1.8417   -2.2496   -0.0033 O   0  0  0  0  0  0  0  0  0  0  0  0
    2.9650    0.3652    0.2978 O   0  0  0  0  0  0  0  0  0  0  0  0
    1.1963    2.5274   -0.3305 O   0  0  0  0  0  0  0  0  0  0  0  0
   -1.6016    2.0402    0.0286 O   0  0  0  0  0  0  0  0  0  0  0  0
   -3.1809   -1.5983    0.4788 O   0  0  0  0  0  0  0  0  0  0  0  0
   -2.3517   -1.2554   -1.3931 H   0  0  0  0  0  0  0  0  0  0  0  0
   -3.1044    0.1653   -0.5991 H   0  0  0  0  0  0  0  0  0  0  0  0
    1.8755   -2.3718   -0.9649 H   0  0  0  0  0  0  0  0  0  0  0  0
    2.9622    0.4441    1.2627 H   0  0  0  0  0  0  0  0  0  0  0  0
    0.4724    3.1740   -0.3428 H   0  0  0  0  0  0  0  0  0  0  0  0
   -1.7547    2.0239    0.9856 H   0  0  0  0  0  0  0  0  0  0  0  0
   -3.9906   -1.9403    0.0746 H   0  0  0  0  0  0  0  0  0  0  0  0
  1  2  1  0  0  0  0
  2  3  1  0  0  0  0
  2  4  1  0  0  0  0
  4  5  1  0  0  0  0
  4  6  1  0  0  0  0
  6  7  1  0  0  0  0
  6  8  1  0  0  0  0
  8  9  1  0  0  0  0
  8 10  1  0  0  0  0
 10 11  1  0  0  0  0
  2 12  1  0  0  0  0
 10 12  1  0  0  0  0
 10 13  1  0  0  0  0
  8 14  1  0  0  0  0
  6 15  1  0  0  0  0
  4 16  1  0  0  0  0
  1 17  1  0  0  0  0
  1 18  1  0  0  0  0
  1 19  1  0  0  0  0
 13 20  1  0  0  0  0
 14 21  1  0  0  0  0
 15 22  1  0  0  0  0
 16 23  1  0  0  0  0
 17 24  1  0  0  0  0
M  END
