 xtb: 6.7.1 (edcfbbe)
          04062518003D

 24 24  0     0  0            999 V2000
   -2.2376   -0.9762   -0.3963 C   0  0  0  0  0  0  0  0  0  0  0  0
   -1.1601   -0.2262    0.3967 C   0  0  0  0  0  0  0  0  0  0  0  0
   -1.6243    0.1818    1.3039 H   0  0  0  0  0  0  0  0  0  0  0  0
   -0.5735    0.9317   -0.4287 C   0  0  0  0  0  0  0  0  0  0  0  0
   -0.4028    0.6073   -1.4616 H   0  0  0  0  0  0  0  0  0  0  0  0
    0.7745    1.3109    0.1970 C   0  0  0  0  0  0  0  0  0  0  0  0
    0.6511    1.4299    1.2860 H   0  0  0  0  0  0  0  0  0  0  0  0
    1.7515    0.1522   -0.0430 C   0  0  0  0  0  0  0  0  0  0  0  0
    2.0794    0.1994   -1.0906 H   0  0  0  0  0  0  0  0  0  0  0  0
    1.0392   -1.2087    0.1481 C   0  0  0  0  0  0  0  0  0  0  0  0
    1.6681   -1.8490    0.7845 H   0  0  0  0  0  0  0  0  0  0  0  0
   -0.1560   -1.1220    0.8800 O   0  0  0  0  0  0  0  0  0  0  0  0
    0.8576   -1.7668   -1.1170 O   0  0  0  0  0  0  0  0  0  0  0  0
    2.8310    0.3246    0.8399 O   0  0  0  0  0  0  0  0  0  0  0  0
    1.2381    2.5043   -0.3756 O   0  0  0  0  0  0  0  0  0  0  0  0
   -1.4762    1.9959   -0.5190 O   0  0  0  0  0  0  0  0  0  0  0  0
   -2.9955   -1.8401    0.4138 O   0  0  0  0  0  0  0  0  0  0  0  0
   -1.7654   -1.5260   -1.2203 H   0  0  0  0  0  0  0  0  0  0  0  0
   -2.9346   -0.2451   -0.8108 H   0  0  0  0  0  0  0  0  0  0  0  0
    0.6119   -2.7020   -1.0453 H   0  0  0  0  0  0  0  0  0  0  0  0
    3.5701   -0.2468    0.5872 H   0  0  0  0  0  0  0  0  0  0  0  0
    2.1036    2.7166    0.0041 H   0  0  0  0  0  0  0  0  0  0  0  0
   -1.4764    2.5032    0.3060 H   0  0  0  0  0  0  0  0  0  0  0  0
   -2.3890   -2.3982    0.9224 H   0  0  0  0  0  0  0  0  0  0  0  0
  1  2  1  0  0  0  0
  2  3  1  0  0  0  0
  2  4  1  0  0  0  0
  4  5  1  0  0  0  0
  4  6  1  0  0  0  0
  6  7  1  0  0  0  0
  6  8  1  0  0  0  0
  8  9  1  0  0  0  0
  8 10  1  0  0  0  0
 10 11  1  0  0  0  0
  2 12  1  0  0  0  0
 10 12  1  0  0  0  0
 10 13  1  0  0  0  0
  8 14  1  0  0  0  0
  6 15  1  0  0  0  0
  4 16  1  0  0  0  0
  1 17  1  0  0  0  0
  1 18  1  0  0  0  0
  1 19  1  0  0  0  0
 13 20  1  0  0  0  0
 14 21  1  0  0  0  0
 15 22  1  0  0  0  0
 16 23  1  0  0  0  0
 17 24  1  0  0  0  0
M  END
