 xtb: 6.7.1 (edcfbbe)
          04052503093D

 19 19  0     0  0            999 V2000
   -3.1853    0.0044    0.8407 C   0  0  0  0  0  0  0  0  0  0  0  0
   -2.4801   -0.0078   -0.5176 C   0  0  0  0  0  0  0  0  0  0  0  0
   -0.9881   -0.0045   -0.3399 C   0  0  0  0  0  0  0  0  0  0  0  0
   -0.2864    1.1905   -0.2341 C   0  0  0  0  0  0  0  0  0  0  0  0
    1.0789    1.2017   -0.0305 C   0  0  0  0  0  0  0  0  0  0  0  0
    1.7771    0.0027    0.0750 C   0  0  0  0  0  0  0  0  0  0  0  0
    1.0864   -1.1983   -0.0266 C   0  0  0  0  0  0  0  0  0  0  0  0
   -0.2816   -1.1941   -0.2305 C   0  0  0  0  0  0  0  0  0  0  0  0
    3.1247    0.0579    0.2738 O   0  0  0  0  0  0  0  0  0  0  0  0
   -2.9031    0.8906    1.4042 H   0  0  0  0  0  0  0  0  0  0  0  0
   -2.9042   -0.8722    1.4198 H   0  0  0  0  0  0  0  0  0  0  0  0
   -4.2644    0.0039    0.7085 H   0  0  0  0  0  0  0  0  0  0  0  0
   -2.7846    0.8715   -1.0880 H   0  0  0  0  0  0  0  0  0  0  0  0
   -2.7837   -0.8976   -1.0719 H   0  0  0  0  0  0  0  0  0  0  0  0
   -0.8159    2.1285   -0.3155 H   0  0  0  0  0  0  0  0  0  0  0  0
    1.6261    2.1282    0.0488 H   0  0  0  0  0  0  0  0  0  0  0  0
    1.6171   -2.1365    0.0524 H   0  0  0  0  0  0  0  0  0  0  0  0
   -0.8065   -2.1351   -0.3087 H   0  0  0  0  0  0  0  0  0  0  0  0
    3.4950   -0.8357    0.3283 H   0  0  0  0  0  0  0  0  0  0  0  0
  1  2  1  0  0  0  0
  2  3  1  0  0  0  0
  3  4  4  0  0  0  0
  4  5  4  0  0  0  0
  5  6  4  0  0  0  0
  6  7  4  0  0  0  0
  3  8  4  0  0  0  0
  7  8  4  0  0  0  0
  6  9  1  0  0  0  0
  1 10  1  0  0  0  0
  1 11  1  0  0  0  0
  1 12  1  0  0  0  0
  2 13  1  0  0  0  0
  2 14  1  0  0  0  0
  4 15  1  0  0  0  0
  5 16  1  0  0  0  0
  7 17  1  0  0  0  0
  8 18  1  0  0  0  0
  9 19  1  0  0  0  0
M  END
