 xtb: 6.7.1 (edcfbbe)
          04062518003D

 24 24  0     0  0            999 V2000
   -2.0782   -0.9152   -0.4001 C   0  0  0  0  0  0  0  0  0  0  0  0
   -1.2300   -0.3524    0.7575 C   0  0  0  0  0  0  0  0  0  0  0  0
   -1.8476   -0.3987    1.6617 H   0  0  0  0  0  0  0  0  0  0  0  0
   -0.8290    1.1192    0.5782 C   0  0  0  0  0  0  0  0  0  0  0  0
   -1.6772    1.6457    0.1125 H   0  0  0  0  0  0  0  0  0  0  0  0
    0.3882    1.3151   -0.3498 C   0  0  0  0  0  0  0  0  0  0  0  0
    0.8421    2.2821   -0.0922 H   0  0  0  0  0  0  0  0  0  0  0  0
    1.4964    0.2492   -0.1578 C   0  0  0  0  0  0  0  0  0  0  0  0
    1.9811    0.1118   -1.1368 H   0  0  0  0  0  0  0  0  0  0  0  0
    1.0098   -1.1456    0.2779 C   0  0  0  0  0  0  0  0  0  0  0  0
    1.8045   -1.5619    0.9126 H   0  0  0  0  0  0  0  0  0  0  0  0
   -0.1208   -1.1774    1.0979 O   0  0  0  0  0  0  0  0  0  0  0  0
    0.8369   -1.9385   -0.8706 O   0  0  0  0  0  0  0  0  0  0  0  0
    2.4385    0.6444    0.8109 O   0  0  0  0  0  0  0  0  0  0  0  0
    0.0090    1.4466   -1.6944 O   0  0  0  0  0  0  0  0  0  0  0  0
   -0.5946    1.6251    1.8724 O   0  0  0  0  0  0  0  0  0  0  0  0
   -1.4968   -0.8193   -1.6794 O   0  0  0  0  0  0  0  0  0  0  0  0
   -3.0104   -0.3494   -0.4494 H   0  0  0  0  0  0  0  0  0  0  0  0
   -2.3104   -1.9604   -0.1667 H   0  0  0  0  0  0  0  0  0  0  0  0
    0.8005   -2.8748   -0.6209 H   0  0  0  0  0  0  0  0  0  0  0  0
    2.9087    1.4353    0.5085 H   0  0  0  0  0  0  0  0  0  0  0  0
   -0.5921    0.7073   -1.9346 H   0  0  0  0  0  0  0  0  0  0  0  0
   -0.4323    2.5784    1.8318 H   0  0  0  0  0  0  0  0  0  0  0  0
   -0.6768   -1.3587   -1.6838 H   0  0  0  0  0  0  0  0  0  0  0  0
  1  2  1  0  0  0  0
  2  3  1  0  0  0  0
  2  4  1  0  0  0  0
  4  5  1  0  0  0  0
  4  6  1  0  0  0  0
  6  7  1  0  0  0  0
  6  8  1  0  0  0  0
  8  9  1  0  0  0  0
  8 10  1  0  0  0  0
 10 11  1  0  0  0  0
  2 12  1  0  0  0  0
 10 12  1  0  0  0  0
 10 13  1  0  0  0  0
  8 14  1  0  0  0  0
  6 15  1  0  0  0  0
  4 16  1  0  0  0  0
  1 17  1  0  0  0  0
  1 18  1  0  0  0  0
  1 19  1  0  0  0  0
 13 20  1  0  0  0  0
 14 21  1  0  0  0  0
 15 22  1  0  0  0  0
 16 23  1  0  0  0  0
 17 24  1  0  0  0  0
M  END
