 xtb: 6.7.1 (edcfbbe)
          04032522143D

 12 11  0     0  0            999 V2000
   -2.5054    0.0397    0.0205 C   0  0  0  0  0  0  0  0  0  0  0  0
   -1.0861   -0.5123   -0.0395 C   0  0  0  0  0  0  0  0  0  0  0  0
   -0.0613    0.6057    0.0549 C   0  0  0  0  0  0  0  0  0  0  0  0
    1.6347   -0.1048   -0.0200 S   0  0  0  0  0  0  0  0  0  0  0  0
   -2.6685    0.5705    0.9555 H   0  0  0  0  0  0  0  0  0  0  0  0
   -2.6813    0.7278   -0.8030 H   0  0  0  0  0  0  0  0  0  0  0  0
   -3.2252   -0.7714   -0.0468 H   0  0  0  0  0  0  0  0  0  0  0  0
   -0.9375   -1.0562   -0.9755 H   0  0  0  0  0  0  0  0  0  0  0  0
   -0.9252   -1.2157    0.7810 H   0  0  0  0  0  0  0  0  0  0  0  0
   -0.1632    1.3001   -0.7783 H   0  0  0  0  0  0  0  0  0  0  0  0
   -0.1519    1.1393    1.0004 H   0  0  0  0  0  0  0  0  0  0  0  0
    2.2768    1.0525    0.0740 H   0  0  0  0  0  0  0  0  0  0  0  0
  1  2  1  0  0  0  0
  2  3  1  0  0  0  0
  3  4  1  0  0  0  0
  1  5  1  0  0  0  0
  1  6  1  0  0  0  0
  1  7  1  0  0  0  0
  2  8  1  0  0  0  0
  2  9  1  0  0  0  0
  3 10  1  0  0  0  0
  3 11  1  0  0  0  0
  4 12  1  0  0  0  0
M  END
