 xtb: 6.7.1 (edcfbbe)
          04062505073D

 29 29  0     0  0            999 V2000
   -3.3840    0.3502    0.1979 C   0  0  0  0  0  0  0  0  0  0  0  0
   -2.2151   -0.3286   -0.5103 C   0  0  0  0  0  0  0  0  0  0  0  0
   -2.5959   -0.8315   -1.4042 H   0  0  0  0  0  0  0  0  0  0  0  0
   -1.5542   -1.3655    0.4081 C   0  0  0  0  0  0  0  0  0  0  0  0
   -0.0824   -1.5570    0.0528 C   0  0  0  0  0  0  0  0  0  0  0  0
    0.6993   -0.2846    0.4018 C   0  0  0  0  0  0  0  0  0  0  0  0
    0.9405   -0.2732    1.4703 H   0  0  0  0  0  0  0  0  0  0  0  0
   -0.1542    0.9296    0.1149 C   0  0  0  0  0  0  0  0  0  0  0  0
   -0.0261    1.9835    0.7104 O   0  0  0  0  0  0  0  0  0  0  0  0
   -1.1760    0.7219   -0.9634 C   0  0  0  0  0  0  0  0  0  0  0  0
    2.0334   -0.1662   -0.3777 C   0  0  0  0  0  0  0  0  0  0  0  0
    2.8485    1.0290    0.1117 C   0  0  0  0  0  0  0  0  0  0  0  0
    2.8655   -1.4397   -0.2316 C   0  0  0  0  0  0  0  0  0  0  0  0
   -4.0797   -0.3949    0.5763 H   0  0  0  0  0  0  0  0  0  0  0  0
   -3.0230    0.9449    1.0354 H   0  0  0  0  0  0  0  0  0  0  0  0
   -3.9197    1.0071   -0.4830 H   0  0  0  0  0  0  0  0  0  0  0  0
   -1.6205   -1.0245    1.4445 H   0  0  0  0  0  0  0  0  0  0  0  0
   -2.0875   -2.3137    0.3353 H   0  0  0  0  0  0  0  0  0  0  0  0
    0.3259   -2.3996    0.6098 H   0  0  0  0  0  0  0  0  0  0  0  0
    0.0070   -1.7796   -1.0114 H   0  0  0  0  0  0  0  0  0  0  0  0
   -1.6657    1.6669   -1.1989 H   0  0  0  0  0  0  0  0  0  0  0  0
   -0.6551    0.3616   -1.8509 H   0  0  0  0  0  0  0  0  0  0  0  0
    1.7977   -0.0202   -1.4382 H   0  0  0  0  0  0  0  0  0  0  0  0
    3.7303    1.1627   -0.5100 H   0  0  0  0  0  0  0  0  0  0  0  0
    3.1713    0.8690    1.1382 H   0  0  0  0  0  0  0  0  0  0  0  0
    2.2657    1.9465    0.0815 H   0  0  0  0  0  0  0  0  0  0  0  0
    2.3741   -2.2929   -0.6884 H   0  0  0  0  0  0  0  0  0  0  0  0
    3.0411   -1.6575    0.8192 H   0  0  0  0  0  0  0  0  0  0  0  0
    3.8282   -1.3019   -0.7176 H   0  0  0  0  0  0  0  0  0  0  0  0
  1  2  1  0  0  0  0
  2  3  1  0  0  0  0
  2  4  1  0  0  0  0
  4  5  1  0  0  0  0
  5  6  1  0  0  0  0
  6  7  1  0  0  0  0
  6  8  1  0  0  0  0
  8  9  2  0  0  0  0
  2 10  1  0  0  0  0
  8 10  1  0  0  0  0
  6 11  1  0  0  0  0
 11 12  1  0  0  0  0
 11 13  1  0  0  0  0
  1 14  1  0  0  0  0
  1 15  1  0  0  0  0
  1 16  1  0  0  0  0
  4 17  1  0  0  0  0
  4 18  1  0  0  0  0
  5 19  1  0  0  0  0
  5 20  1  0  0  0  0
 10 21  1  0  0  0  0
 10 22  1  0  0  0  0
 11 23  1  0  0  0  0
 12 24  1  0  0  0  0
 12 25  1  0  0  0  0
 12 26  1  0  0  0  0
 13 27  1  0  0  0  0
 13 28  1  0  0  0  0
 13 29  1  0  0  0  0
M  END
