 xtb: 6.7.1 (edcfbbe)
          04032521553D

 12 11  0     0  0            999 V2000
   -1.8158   -0.0203   -0.9905 C   0  0  0  0  0  0  0  0  0  0  0  0
   -0.9781    0.3386    0.2318 C   0  0  0  0  0  0  0  0  0  0  0  0
   -1.0656    1.4115    0.4562 H   0  0  0  0  0  0  0  0  0  0  0  0
    0.5085    0.0943   -0.0763 C   0  0  0  0  0  0  0  0  0  0  0  0
    1.2918    0.3559    0.9915 F   0  0  0  0  0  0  0  0  0  0  0  0
    0.7815   -1.1670   -0.4366 F   0  0  0  0  0  0  0  0  0  0  0  0
    0.9610    0.8826   -1.0679 F   0  0  0  0  0  0  0  0  0  0  0  0
   -1.3753   -0.4542    1.3129 O   0  0  0  0  0  0  0  0  0  0  0  0
   -1.7061   -1.0797   -1.2063 H   0  0  0  0  0  0  0  0  0  0  0  0
   -1.4987    0.5645   -1.8482 H   0  0  0  0  0  0  0  0  0  0  0  0
   -2.8579    0.1856   -0.7708 H   0  0  0  0  0  0  0  0  0  0  0  0
   -1.0021   -0.1354    2.1480 H   0  0  0  0  0  0  0  0  0  0  0  0
  1  2  1  0  0  0  0
  2  3  1  0  0  0  0
  2  4  1  0  0  0  0
  4  5  1  0  0  0  0
  4  6  1  0  0  0  0
  4  7  1  0  0  0  0
  2  8  1  0  0  0  0
  1  9  1  0  0  0  0
  1 10  1  0  0  0  0
  1 11  1  0  0  0  0
  8 12  1  0  0  0  0
M  END
