 xtb: 6.7.1 (edcfbbe)
          04032521083D

 18 18  0     0  0            999 V2000
   -2.1864   -0.0403   -0.1821 C   0  0  0  0  0  0  0  0  0  0  0  0
   -0.7805   -0.0599    0.4023 C   0  0  0  0  0  0  0  0  0  0  0  0
    0.0894   -1.1916   -0.1533 C   0  0  0  0  0  0  0  0  0  0  0  0
    1.5090   -0.7107    0.1237 C   0  0  0  0  0  0  0  0  0  0  0  0
    1.4525    0.7730   -0.2458 C   0  0  0  0  0  0  0  0  0  0  0  0
    0.0205    1.2221    0.0968 C   0  0  0  0  0  0  0  0  0  0  0  0
   -2.1472    0.0764   -1.2632 H   0  0  0  0  0  0  0  0  0  0  0  0
   -2.7044   -0.9694    0.0448 H   0  0  0  0  0  0  0  0  0  0  0  0
   -2.7605    0.7846    0.2338 H   0  0  0  0  0  0  0  0  0  0  0  0
   -0.8553   -0.1833    1.4877 H   0  0  0  0  0  0  0  0  0  0  0  0
   -0.1312   -2.1514    0.3120 H   0  0  0  0  0  0  0  0  0  0  0  0
   -0.0680   -1.2840   -1.2296 H   0  0  0  0  0  0  0  0  0  0  0  0
    1.7361   -0.8261    1.1849 H   0  0  0  0  0  0  0  0  0  0  0  0
    2.2594   -1.2531   -0.4496 H   0  0  0  0  0  0  0  0  0  0  0  0
    2.2033    1.3542    0.2876 H   0  0  0  0  0  0  0  0  0  0  0  0
    1.6363    0.8902   -1.3144 H   0  0  0  0  0  0  0  0  0  0  0  0
    0.0109    1.8953    0.9535 H   0  0  0  0  0  0  0  0  0  0  0  0
   -0.4247    1.7543   -0.7437 H   0  0  0  0  0  0  0  0  0  0  0  0
  1  2  1  0  0  0  0
  2  3  1  0  0  0  0
  3  4  1  0  0  0  0
  4  5  1  0  0  0  0
  2  6  1  0  0  0  0
  5  6  1  0  0  0  0
  1  7  1  0  0  0  0
  1  8  1  0  0  0  0
  1  9  1  0  0  0  0
  2 10  1  0  0  0  0
  3 11  1  0  0  0  0
  3 12  1  0  0  0  0
  4 13  1  0  0  0  0
  4 14  1  0  0  0  0
  5 15  1  0  0  0  0
  5 16  1  0  0  0  0
  6 17  1  0  0  0  0
  6 18  1  0  0  0  0
M  END
