 xtb: 6.7.1 (edcfbbe)
          04032521473D

 16 16  0     0  0            999 V2000
   -1.5014    0.7544    0.0815 C   0  0  0  0  0  0  0  0  0  0  0  0
   -1.3909   -0.6711   -0.4523 C   0  0  0  0  0  0  0  0  0  0  0  0
   -0.1339   -1.2108    0.2331 C   0  0  0  0  0  0  0  0  0  0  0  0
    0.7831    0.0086    0.4584 C   0  0  0  0  0  0  0  0  0  0  0  0
   -0.0545    1.2392    0.0535 C   0  0  0  0  0  0  0  0  0  0  0  0
    1.9516   -0.1455   -0.3260 O   0  0  0  0  0  0  0  0  0  0  0  0
   -1.8713    0.7403    1.1078 H   0  0  0  0  0  0  0  0  0  0  0  0
   -2.1601    1.3802   -0.5179 H   0  0  0  0  0  0  0  0  0  0  0  0
   -2.2697   -1.2742   -0.2326 H   0  0  0  0  0  0  0  0  0  0  0  0
   -1.2464   -0.6476   -1.5329 H   0  0  0  0  0  0  0  0  0  0  0  0
   -0.3861   -1.6675    1.1891 H   0  0  0  0  0  0  0  0  0  0  0  0
    0.3893   -1.9471   -0.3744 H   0  0  0  0  0  0  0  0  0  0  0  0
    1.0724    0.0722    1.5178 H   0  0  0  0  0  0  0  0  0  0  0  0
    0.1171    2.0915    0.7089 H   0  0  0  0  0  0  0  0  0  0  0  0
    0.2192    1.5170   -0.9659 H   0  0  0  0  0  0  0  0  0  0  0  0
    2.5355    0.6111   -0.1848 H   0  0  0  0  0  0  0  0  0  0  0  0
  1  2  1  0  0  0  0
  2  3  1  0  0  0  0
  3  4  1  0  0  0  0
  1  5  1  0  0  0  0
  4  5  1  0  0  0  0
  4  6  1  0  0  0  0
  1  7  1  0  0  0  0
  1  8  1  0  0  0  0
  2  9  1  0  0  0  0
  2 10  1  0  0  0  0
  3 11  1  0  0  0  0
  3 12  1  0  0  0  0
  4 13  1  0  0  0  0
  5 14  1  0  0  0  0
  5 15  1  0  0  0  0
  6 16  1  0  0  0  0
M  END
