 xtb: 6.7.1 (edcfbbe)
          04062518003D

 24 24  0     0  0            999 V2000
   -2.4001   -1.1431   -0.2999 C   0  0  0  0  0  0  0  0  0  0  0  0
   -1.0586   -0.6236    0.2441 C   0  0  0  0  0  0  0  0  0  0  0  0
   -1.0710   -0.6192    1.3466 H   0  0  0  0  0  0  0  0  0  0  0  0
   -0.7717    0.8074   -0.2399 C   0  0  0  0  0  0  0  0  0  0  0  0
   -0.8185    0.8227   -1.3411 H   0  0  0  0  0  0  0  0  0  0  0  0
    0.6400    1.2528    0.1779 C   0  0  0  0  0  0  0  0  0  0  0  0
    0.6631    1.3824    1.2708 H   0  0  0  0  0  0  0  0  0  0  0  0
    1.6814    0.1979   -0.2020 C   0  0  0  0  0  0  0  0  0  0  0  0
    1.7924    0.2076   -1.2970 H   0  0  0  0  0  0  0  0  0  0  0  0
    1.2238   -1.2047    0.2579 C   0  0  0  0  0  0  0  0  0  0  0  0
    1.2441   -1.2254    1.3615 H   0  0  0  0  0  0  0  0  0  0  0  0
   -0.0629   -1.5132   -0.2184 O   0  0  0  0  0  0  0  0  0  0  0  0
    2.0939   -2.1886   -0.1725 O   0  0  0  0  0  0  0  0  0  0  0  0
    2.8959    0.5257    0.4216 O   0  0  0  0  0  0  0  0  0  0  0  0
    0.9827    2.4567   -0.4600 O   0  0  0  0  0  0  0  0  0  0  0  0
   -1.6729    1.7376    0.3059 O   0  0  0  0  0  0  0  0  0  0  0  0
   -3.4949   -0.3960    0.1673 O   0  0  0  0  0  0  0  0  0  0  0  0
   -2.4890   -2.2038   -0.0477 H   0  0  0  0  0  0  0  0  0  0  0  0
   -2.3981   -1.0479   -1.3882 H   0  0  0  0  0  0  0  0  0  0  0  0
    1.8838   -2.4205   -1.0913 H   0  0  0  0  0  0  0  0  0  0  0  0
    3.5416   -0.1745    0.2378 H   0  0  0  0  0  0  0  0  0  0  0  0
    0.3173    3.1220   -0.2274 H   0  0  0  0  0  0  0  0  0  0  0  0
   -2.5799    1.4236    0.1382 H   0  0  0  0  0  0  0  0  0  0  0  0
   -3.6961   -0.6422    1.0814 H   0  0  0  0  0  0  0  0  0  0  0  0
  1  2  1  0  0  0  0
  2  3  1  0  0  0  0
  2  4  1  0  0  0  0
  4  5  1  0  0  0  0
  4  6  1  0  0  0  0
  6  7  1  0  0  0  0
  6  8  1  0  0  0  0
  8  9  1  0  0  0  0
  8 10  1  0  0  0  0
 10 11  1  0  0  0  0
  2 12  1  0  0  0  0
 10 12  1  0  0  0  0
 10 13  1  0  0  0  0
  8 14  1  0  0  0  0
  6 15  1  0  0  0  0
  4 16  1  0  0  0  0
  1 17  1  0  0  0  0
  1 18  1  0  0  0  0
  1 19  1  0  0  0  0
 13 20  1  0  0  0  0
 14 21  1  0  0  0  0
 15 22  1  0  0  0  0
 16 23  1  0  0  0  0
 17 24  1  0  0  0  0
M  END
