 xtb: 6.7.1 (edcfbbe)
          04042519103D

 15 14  0     0  0            999 V2000
   -1.3513   -0.8692    0.4087 C   0  0  0  0  0  0  0  0  0  0  0  0
   -0.5928    0.0845   -0.5112 C   0  0  0  0  0  0  0  0  0  0  0  0
   -0.6699    1.5175    0.0100 C   0  0  0  0  0  0  0  0  0  0  0  0
    0.8700   -0.3555   -0.6458 C   0  0  0  0  0  0  0  0  0  0  0  0
    1.4975   -0.3269    0.6207 O   0  0  0  0  0  0  0  0  0  0  0  0
   -1.3373   -1.8798    0.0073 H   0  0  0  0  0  0  0  0  0  0  0  0
   -2.3849   -0.5511    0.5156 H   0  0  0  0  0  0  0  0  0  0  0  0
   -0.8831   -0.8789    1.3897 H   0  0  0  0  0  0  0  0  0  0  0  0
   -1.0344    0.0432   -1.5130 H   0  0  0  0  0  0  0  0  0  0  0  0
   -0.1742    2.2011   -0.6754 H   0  0  0  0  0  0  0  0  0  0  0  0
   -0.1793    1.5803    0.9781 H   0  0  0  0  0  0  0  0  0  0  0  0
   -1.7061    1.8256    0.1205 H   0  0  0  0  0  0  0  0  0  0  0  0
    0.9042   -1.3723   -1.0617 H   0  0  0  0  0  0  0  0  0  0  0  0
    1.3878    0.3214   -1.3398 H   0  0  0  0  0  0  0  0  0  0  0  0
    2.4191   -0.5966    0.5239 H   0  0  0  0  0  0  0  0  0  0  0  0
  1  2  1  0  0  0  0
  2  3  1  0  0  0  0
  2  4  1  0  0  0  0
  4  5  1  0  0  0  0
  1  6  1  0  0  0  0
  1  7  1  0  0  0  0
  1  8  1  0  0  0  0
  2  9  1  0  0  0  0
  3 10  1  0  0  0  0
  3 11  1  0  0  0  0
  3 12  1  0  0  0  0
  4 13  1  0  0  0  0
  4 14  1  0  0  0  0
  5 15  1  0  0  0  0
M  END
