 xtb: 6.7.1 (edcfbbe)
          04032522113D

 11 10  0     0  0            999 V2000
   -2.6283    0.0381   -0.3732 C   0  0  0  0  0  0  0  0  0  0  0  0
   -1.3514    0.5410    0.0411 O   0  0  0  0  0  0  0  0  0  0  0  0
   -0.4503   -0.3030    0.4996 C   0  0  0  0  0  0  0  0  0  0  0  0
   -0.6133   -1.4955    0.6240 O   0  0  0  0  0  0  0  0  0  0  0  0
    0.8431    0.4142    0.8312 C   0  0  0  0  0  0  0  0  0  0  0  0
    1.8359    0.3479   -0.6601 Cl  0  0  0  0  0  0  0  0  0  0  0  0
   -3.3709    0.7433   -0.0094 H   0  0  0  0  0  0  0  0  0  0  0  0
   -2.7904   -0.9554    0.0446 H   0  0  0  0  0  0  0  0  0  0  0  0
   -2.6466   -0.0066   -1.4613 H   0  0  0  0  0  0  0  0  0  0  0  0
    1.3902   -0.1080    1.6128 H   0  0  0  0  0  0  0  0  0  0  0  0
    0.6688    1.4618    1.0638 H   0  0  0  0  0  0  0  0  0  0  0  0
  1  2  1  0  0  0  0
  2  3  1  0  0  0  0
  3  4  2  0  0  0  0
  3  5  1  0  0  0  0
  5  6  1  0  0  0  0
  1  7  1  0  0  0  0
  1  8  1  0  0  0  0
  1  9  1  0  0  0  0
  5 10  1  0  0  0  0
  5 11  1  0  0  0  0
M  END
