 xtb: 6.7.1 (edcfbbe)
          04052516073D

 27 27  0     0  0            999 V2000
   -2.8614    0.6871   -0.3682 C   0  0  0  0  0  0  0  0  0  0  0  0
   -1.7187    0.2585    0.5634 C   0  0  0  0  0  0  0  0  0  0  0  0
   -2.1611   -0.0000    1.5323 H   0  0  0  0  0  0  0  0  0  0  0  0
   -0.6799    1.3669    0.7579 C   0  0  0  0  0  0  0  0  0  0  0  0
    0.1718    1.5887   -0.4846 C   0  0  0  0  0  0  0  0  0  0  0  0
    0.9104    0.3040   -0.8859 C   0  0  0  0  0  0  0  0  0  0  0  0
    1.4154    0.4860   -1.8410 H   0  0  0  0  0  0  0  0  0  0  0  0
   -0.1067   -0.8232   -1.1106 C   0  0  0  0  0  0  0  0  0  0  0  0
   -1.1015   -1.0007    0.0007 C   0  0  0  0  0  0  0  0  0  0  0  0
   -1.4560   -2.1043    0.3796 O   0  0  0  0  0  0  0  0  0  0  0  0
    1.9801   -0.0414    0.1247 C   0  0  0  0  0  0  0  0  0  0  0  0
    1.7978   -0.8770    1.1349 C   0  0  0  0  0  0  0  0  0  0  0  0
    3.2908    0.6534   -0.0959 C   0  0  0  0  0  0  0  0  0  0  0  0
   -2.4885    0.9665   -1.3486 H   0  0  0  0  0  0  0  0  0  0  0  0
   -3.5708   -0.1291   -0.4876 H   0  0  0  0  0  0  0  0  0  0  0  0
   -3.3812    1.5379    0.0641 H   0  0  0  0  0  0  0  0  0  0  0  0
   -1.1961    2.2905    1.0246 H   0  0  0  0  0  0  0  0  0  0  0  0
   -0.0278    1.0941    1.5904 H   0  0  0  0  0  0  0  0  0  0  0  0
   -0.4545    1.9144   -1.3153 H   0  0  0  0  0  0  0  0  0  0  0  0
    0.8944    2.3810   -0.2853 H   0  0  0  0  0  0  0  0  0  0  0  0
   -0.6934   -0.5854   -2.0020 H   0  0  0  0  0  0  0  0  0  0  0  0
    0.3986   -1.7748   -1.2866 H   0  0  0  0  0  0  0  0  0  0  0  0
    2.5835   -1.0838    1.8425 H   0  0  0  0  0  0  0  0  0  0  0  0
    0.8730   -1.4016    1.3033 H   0  0  0  0  0  0  0  0  0  0  0  0
    3.9776    0.4572    0.7223 H   0  0  0  0  0  0  0  0  0  0  0  0
    3.7443    0.3031   -1.0223 H   0  0  0  0  0  0  0  0  0  0  0  0
    3.1458    1.7283   -0.1836 H   0  0  0  0  0  0  0  0  0  0  0  0
  1  2  1  0  0  0  0
  2  3  1  0  0  0  0
  2  4  1  0  0  0  0
  4  5  1  0  0  0  0
  5  6  1  0  0  0  0
  6  7  1  0  0  0  0
  6  8  1  0  0  0  0
  2  9  1  0  0  0  0
  8  9  1  0  0  0  0
  9 10  2  0  0  0  0
  6 11  1  0  0  0  0
 11 12  2  0  0  0  0
 11 13  1  0  0  0  0
  1 14  1  0  0  0  0
  1 15  1  0  0  0  0
  1 16  1  0  0  0  0
  4 17  1  0  0  0  0
  4 18  1  0  0  0  0
  5 19  1  0  0  0  0
  5 20  1  0  0  0  0
  8 21  1  0  0  0  0
  8 22  1  0  0  0  0
 12 23  1  0  0  0  0
 12 24  1  0  0  0  0
 13 25  1  0  0  0  0
 13 26  1  0  0  0  0
 13 27  1  0  0  0  0
M  END
