 xtb: 6.7.1 (edcfbbe)
          04052509003D

 22 23  0     0  0            999 V2000
   -1.1895    0.9204    1.0267 C   0  0  0  0  0  0  0  0  0  0  0  0
   -0.5102    0.2257    0.0357 C   0  0  0  0  0  0  0  0  0  0  0  0
   -1.2238   -0.5795   -0.8511 C   0  0  0  0  0  0  0  0  0  0  0  0
   -2.6094   -0.6799   -0.7502 C   0  0  0  0  0  0  0  0  0  0  0  0
   -3.2873    0.0246    0.2428 C   0  0  0  0  0  0  0  0  0  0  0  0
   -2.5674    0.8224    1.1309 C   0  0  0  0  0  0  0  0  0  0  0  0
   -3.3992    1.6877    2.3611 Cl  0  0  0  0  0  0  0  0  0  0  0  0
   -4.9974   -0.0985    0.3662 Cl  0  0  0  0  0  0  0  0  0  0  0  0
   -3.4857   -1.6731   -1.8459 Cl  0  0  0  0  0  0  0  0  0  0  0  0
   -0.3930   -1.4743   -2.0617 Cl  0  0  0  0  0  0  0  0  0  0  0  0
    0.9612    0.3368   -0.0823 C   0  0  0  0  0  0  0  0  0  0  0  0
    1.5482    1.0458   -1.1302 C   0  0  0  0  0  0  0  0  0  0  0  0
    2.9245    1.1480   -1.2516 C   0  0  0  0  0  0  0  0  0  0  0  0
    3.7363    0.5297   -0.3137 C   0  0  0  0  0  0  0  0  0  0  0  0
    3.1801   -0.1860    0.7460 C   0  0  0  0  0  0  0  0  0  0  0  0
    1.7939   -0.2741    0.8531 C   0  0  0  0  0  0  0  0  0  0  0  0
    1.0947   -1.1723    2.1424 Cl  0  0  0  0  0  0  0  0  0  0  0  0
    4.1893   -0.9569    1.9066 Cl  0  0  0  0  0  0  0  0  0  0  0  0
    5.4443    0.6447   -0.4575 Cl  0  0  0  0  0  0  0  0  0  0  0  0
    0.5358    1.8208   -2.2849 Cl  0  0  0  0  0  0  0  0  0  0  0  0
   -0.6430    1.5438    1.7152 H   0  0  0  0  0  0  0  0  0  0  0  0
    3.3625    1.7013   -2.0655 H   0  0  0  0  0  0  0  0  0  0  0  0
  1  2  4  0  0  0  0
  2  3  4  0  0  0  0
  3  4  4  0  0  0  0
  4  5  4  0  0  0  0
  1  6  4  0  0  0  0
  5  6  4  0  0  0  0
  6  7  1  0  0  0  0
  5  8  1  0  0  0  0
  4  9  1  0  0  0  0
  3 10  1  0  0  0  0
  2 11  1  0  0  0  0
 11 12  4  0  0  0  0
 12 13  4  0  0  0  0
 13 14  4  0  0  0  0
 14 15  4  0  0  0  0
 11 16  4  0  0  0  0
 15 16  4  0  0  0  0
 16 17  1  0  0  0  0
 15 18  1  0  0  0  0
 14 19  1  0  0  0  0
 12 20  1  0  0  0  0
  1 21  1  0  0  0  0
 13 22  1  0  0  0  0
M  END
