 xtb: 6.7.1 (edcfbbe)
          04042521073D

 15 14  0     0  0            999 V2000
   -2.2023    0.2795    0.3822 C   0  0  0  0  0  0  0  0  0  0  0  0
   -0.9862    0.2255   -0.5426 C   0  0  0  0  0  0  0  0  0  0  0  0
    0.0018   -0.7960   -0.0706 C   0  0  0  0  0  0  0  0  0  0  0  0
    1.2859   -0.5899    0.1803 C   0  0  0  0  0  0  0  0  0  0  0  0
    2.0097    0.7140    0.0266 C   0  0  0  0  0  0  0  0  0  0  0  0
   -1.8985    0.5567    1.3892 H   0  0  0  0  0  0  0  0  0  0  0  0
   -2.6912   -0.6913    0.4272 H   0  0  0  0  0  0  0  0  0  0  0  0
   -2.9210    1.0121    0.0229 H   0  0  0  0  0  0  0  0  0  0  0  0
   -1.3195   -0.0440   -1.5495 H   0  0  0  0  0  0  0  0  0  0  0  0
   -0.5231    1.2103   -0.5912 H   0  0  0  0  0  0  0  0  0  0  0  0
   -0.4125   -1.7853    0.0788 H   0  0  0  0  0  0  0  0  0  0  0  0
    1.8857   -1.4178    0.5349 H   0  0  0  0  0  0  0  0  0  0  0  0
    3.0832    0.5621    0.0930 H   0  0  0  0  0  0  0  0  0  0  0  0
    1.7150    1.4083    0.8133 H   0  0  0  0  0  0  0  0  0  0  0  0
    1.7844    1.1769   -0.9319 H   0  0  0  0  0  0  0  0  0  0  0  0
  1  2  1  0  0  0  0
  2  3  1  0  0  0  0
  3  4  2  0  0  0  0
  4  5  1  0  0  0  0
  1  6  1  0  0  0  0
  1  7  1  0  0  0  0
  1  8  1  0  0  0  0
  2  9  1  0  0  0  0
  2 10  1  0  0  0  0
  3 11  1  0  0  0  0
  4 12  1  0  0  0  0
  5 13  1  0  0  0  0
  5 14  1  0  0  0  0
  5 15  1  0  0  0  0
M  END
