 xtb: 6.7.1 (edcfbbe)
          04062518003D

 24 24  0     0  0            999 V2000
   -2.2869   -1.0860   -0.0012 C   0  0  0  0  0  0  0  0  0  0  0  0
   -0.8973   -0.5218    0.3160 C   0  0  0  0  0  0  0  0  0  0  0  0
   -0.8870   -0.2493    1.3807 H   0  0  0  0  0  0  0  0  0  0  0  0
   -0.5470    0.7131   -0.5213 C   0  0  0  0  0  0  0  0  0  0  0  0
   -0.4464    0.3879   -1.5702 H   0  0  0  0  0  0  0  0  0  0  0  0
    0.8084    1.2873   -0.0549 C   0  0  0  0  0  0  0  0  0  0  0  0
    0.6073    2.0332    0.7224 H   0  0  0  0  0  0  0  0  0  0  0  0
    1.7093    0.1806    0.5404 C   0  0  0  0  0  0  0  0  0  0  0  0
    2.7516    0.4199    0.2848 H   0  0  0  0  0  0  0  0  0  0  0  0
    1.3752   -1.1564   -0.1315 C   0  0  0  0  0  0  0  0  0  0  0  0
    1.9916   -1.9527    0.3122 H   0  0  0  0  0  0  0  0  0  0  0  0
    0.0483   -1.5609    0.0783 O   0  0  0  0  0  0  0  0  0  0  0  0
    1.6563   -1.0059   -1.4930 O   0  0  0  0  0  0  0  0  0  0  0  0
    1.5555    0.0149    1.9245 O   0  0  0  0  0  0  0  0  0  0  0  0
    1.4618    1.9775   -1.0911 O   0  0  0  0  0  0  0  0  0  0  0  0
   -1.5813    1.6549   -0.4047 O   0  0  0  0  0  0  0  0  0  0  0  0
   -3.1951   -0.6135    0.9626 O   0  0  0  0  0  0  0  0  0  0  0  0
   -2.2067   -2.1805    0.0398 H   0  0  0  0  0  0  0  0  0  0  0  0
   -2.5887   -0.7808   -1.0092 H   0  0  0  0  0  0  0  0  0  0  0  0
    1.5121   -1.8477   -1.9522 H   0  0  0  0  0  0  0  0  0  0  0  0
    1.9210    0.7828    2.3884 H   0  0  0  0  0  0  0  0  0  0  0  0
    1.7195    1.3401   -1.7754 H   0  0  0  0  0  0  0  0  0  0  0  0
   -1.3419    2.4464   -0.9097 H   0  0  0  0  0  0  0  0  0  0  0  0
   -4.0932   -0.8645    0.7044 H   0  0  0  0  0  0  0  0  0  0  0  0
  1  2  1  0  0  0  0
  2  3  1  0  0  0  0
  2  4  1  0  0  0  0
  4  5  1  0  0  0  0
  4  6  1  0  0  0  0
  6  7  1  0  0  0  0
  6  8  1  0  0  0  0
  8  9  1  0  0  0  0
  8 10  1  0  0  0  0
 10 11  1  0  0  0  0
  2 12  1  0  0  0  0
 10 12  1  0  0  0  0
 10 13  1  0  0  0  0
  8 14  1  0  0  0  0
  6 15  1  0  0  0  0
  4 16  1  0  0  0  0
  1 17  1  0  0  0  0
  1 18  1  0  0  0  0
  1 19  1  0  0  0  0
 13 20  1  0  0  0  0
 14 21  1  0  0  0  0
 15 22  1  0  0  0  0
 16 23  1  0  0  0  0
 17 24  1  0  0  0  0
M  END
