 xtb: 6.7.1 (edcfbbe)
          04062518003D

 24 24  0     0  0            999 V2000
   -2.2843   -1.0555   -0.2504 C   0  0  0  0  0  0  0  0  0  0  0  0
   -0.9065   -0.5468    0.1705 C   0  0  0  0  0  0  0  0  0  0  0  0
   -0.7680   -0.7209    1.2471 H   0  0  0  0  0  0  0  0  0  0  0  0
   -0.7547    0.9691   -0.0881 C   0  0  0  0  0  0  0  0  0  0  0  0
   -1.3448    1.2525   -0.9745 H   0  0  0  0  0  0  0  0  0  0  0  0
    0.7233    1.2648   -0.4037 C   0  0  0  0  0  0  0  0  0  0  0  0
    0.9259    2.3127   -0.1591 H   0  0  0  0  0  0  0  0  0  0  0  0
    1.6344    0.3431    0.4334 C   0  0  0  0  0  0  0  0  0  0  0  0
    2.6858    0.5671    0.1949 H   0  0  0  0  0  0  0  0  0  0  0  0
    1.3657   -1.1290    0.0317 C   0  0  0  0  0  0  0  0  0  0  0  0
    1.4146   -1.7422    0.9453 H   0  0  0  0  0  0  0  0  0  0  0  0
    0.0797   -1.2607   -0.5578 O   0  0  0  0  0  0  0  0  0  0  0  0
    2.3002   -1.6446   -0.8365 O   0  0  0  0  0  0  0  0  0  0  0  0
    1.4062    0.4501    1.8139 O   0  0  0  0  0  0  0  0  0  0  0  0
    1.0028    1.1143   -1.7738 O   0  0  0  0  0  0  0  0  0  0  0  0
   -1.1451    1.7390    1.0169 O   0  0  0  0  0  0  0  0  0  0  0  0
   -3.2445   -0.2852    0.4344 O   0  0  0  0  0  0  0  0  0  0  0  0
   -2.3611   -2.1182    0.0044 H   0  0  0  0  0  0  0  0  0  0  0  0
   -2.3871   -0.9434   -1.3369 H   0  0  0  0  0  0  0  0  0  0  0  0
    2.3240   -1.1240   -1.6564 H   0  0  0  0  0  0  0  0  0  0  0  0
    1.4097    1.3817    2.0788 H   0  0  0  0  0  0  0  0  0  0  0  0
    0.6015    0.2834   -2.0754 H   0  0  0  0  0  0  0  0  0  0  0  0
   -2.0596    1.5057    1.2414 H   0  0  0  0  0  0  0  0  0  0  0  0
   -4.1306   -0.6085    0.2191 H   0  0  0  0  0  0  0  0  0  0  0  0
  1  2  1  0  0  0  0
  2  3  1  0  0  0  0
  2  4  1  0  0  0  0
  4  5  1  0  0  0  0
  4  6  1  0  0  0  0
  6  7  1  0  0  0  0
  6  8  1  0  0  0  0
  8  9  1  0  0  0  0
  8 10  1  0  0  0  0
 10 11  1  0  0  0  0
  2 12  1  0  0  0  0
 10 12  1  0  0  0  0
 10 13  1  0  0  0  0
  8 14  1  0  0  0  0
  6 15  1  0  0  0  0
  4 16  1  0  0  0  0
  1 17  1  0  0  0  0
  1 18  1  0  0  0  0
  1 19  1  0  0  0  0
 13 20  1  0  0  0  0
 14 21  1  0  0  0  0
 15 22  1  0  0  0  0
 16 23  1  0  0  0  0
 17 24  1  0  0  0  0
M  END
