 xtb: 6.7.1 (edcfbbe)
          04042513183D

 12 11  0     0  0            999 V2000
   -1.9496    0.4987    0.0642 C   0  0  0  0  0  0  0  0  0  0  0  0
   -0.9010   -0.5900   -0.1223 C   0  0  0  0  0  0  0  0  0  0  0  0
    0.5508   -0.1637   -0.0239 C   0  0  0  0  0  0  0  0  0  0  0  0
    1.4575   -0.9809   -0.1858 O   0  0  0  0  0  0  0  0  0  0  0  0
    0.8037    1.1205    0.2441 N   0  0  0  0  0  0  0  0  0  0  0  0
   -2.9387    0.0602   -0.0411 H   0  0  0  0  0  0  0  0  0  0  0  0
   -1.8858    0.9400    1.0557 H   0  0  0  0  0  0  0  0  0  0  0  0
   -1.8476    1.2746   -0.6905 H   0  0  0  0  0  0  0  0  0  0  0  0
   -1.0153   -1.0636   -1.1003 H   0  0  0  0  0  0  0  0  0  0  0  0
   -1.0389   -1.3800    0.6199 H   0  0  0  0  0  0  0  0  0  0  0  0
    0.0645    1.7876    0.3768 H   0  0  0  0  0  0  0  0  0  0  0  0
    1.7626    1.4198    0.3143 H   0  0  0  0  0  0  0  0  0  0  0  0
  1  2  1  0  0  0  0
  2  3  1  0  0  0  0
  3  4  2  0  0  0  0
  3  5  4  0  0  0  0
  1  6  1  0  0  0  0
  1  7  1  0  0  0  0
  1  8  1  0  0  0  0
  2  9  1  0  0  0  0
  2 10  1  0  0  0  0
  5 11  1  0  0  0  0
  5 12  1  0  0  0  0
M  END
