 xtb: 6.7.1 (edcfbbe)
          04032521533D

 18 17  0     0  0            999 V2000
    0.5049    0.9964   -1.1913 C   0  0  0  0  0  0  0  0  0  0  0  0
    0.3757    0.1522    0.0834 C   0  0  0  0  0  0  0  0  0  0  0  0
    0.9423    0.9202    1.2938 C   0  0  0  0  0  0  0  0  0  0  0  0
    1.1171   -1.1783   -0.0993 C   0  0  0  0  0  0  0  0  0  0  0  0
   -1.0056   -0.0599    0.4306 O   0  0  0  0  0  0  0  0  0  0  0  0
   -1.8171   -0.7741   -0.4742 C   0  0  0  0  0  0  0  0  0  0  0  0
    0.1745    0.4428   -2.0670 H   0  0  0  0  0  0  0  0  0  0  0  0
   -0.0943    1.8993   -1.0980 H   0  0  0  0  0  0  0  0  0  0  0  0
    1.5452    1.2726   -1.3358 H   0  0  0  0  0  0  0  0  0  0  0  0
    1.3249    1.8916    0.9977 H   0  0  0  0  0  0  0  0  0  0  0  0
    1.7374    0.3607    1.7759 H   0  0  0  0  0  0  0  0  0  0  0  0
    0.1402    1.0691    2.0119 H   0  0  0  0  0  0  0  0  0  0  0  0
    0.9482   -1.8170    0.7648 H   0  0  0  0  0  0  0  0  0  0  0  0
    0.7807   -1.6976   -0.9936 H   0  0  0  0  0  0  0  0  0  0  0  0
    2.1813   -0.9858   -0.1966 H   0  0  0  0  0  0  0  0  0  0  0  0
   -1.4743   -1.8046   -0.6053 H   0  0  0  0  0  0  0  0  0  0  0  0
   -1.8755   -0.2823   -1.4492 H   0  0  0  0  0  0  0  0  0  0  0  0
   -2.8070   -0.7840   -0.0218 H   0  0  0  0  0  0  0  0  0  0  0  0
  1  2  1  0  0  0  0
  2  3  1  0  0  0  0
  2  4  1  0  0  0  0
  2  5  1  0  0  0  0
  5  6  1  0  0  0  0
  1  7  1  0  0  0  0
  1  8  1  0  0  0  0
  1  9  1  0  0  0  0
  3 10  1  0  0  0  0
  3 11  1  0  0  0  0
  3 12  1  0  0  0  0
  4 13  1  0  0  0  0
  4 14  1  0  0  0  0
  4 15  1  0  0  0  0
  6 16  1  0  0  0  0
  6 17  1  0  0  0  0
  6 18  1  0  0  0  0
M  END
