 xtb: 6.7.1 (edcfbbe)
          04062518003D

 24 24  0     0  0            999 V2000
   -1.7934   -1.0557   -0.6729 C   0  0  0  0  0  0  0  0  0  0  0  0
   -1.0345   -0.4881    0.5371 C   0  0  0  0  0  0  0  0  0  0  0  0
   -1.6972   -0.5791    1.4062 H   0  0  0  0  0  0  0  0  0  0  0  0
   -0.7107    1.0096    0.3674 C   0  0  0  0  0  0  0  0  0  0  0  0
   -1.5646    1.4638   -0.1480 H   0  0  0  0  0  0  0  0  0  0  0  0
    0.5781    1.2375   -0.4509 C   0  0  0  0  0  0  0  0  0  0  0  0
    0.8803    2.2835   -0.2991 H   0  0  0  0  0  0  0  0  0  0  0  0
    1.7159    0.3525    0.0871 C   0  0  0  0  0  0  0  0  0  0  0  0
    2.5683    0.4324   -0.6037 H   0  0  0  0  0  0  0  0  0  0  0  0
    1.2646   -1.1203    0.1144 C   0  0  0  0  0  0  0  0  0  0  0  0
    1.9958   -1.7351    0.6567 H   0  0  0  0  0  0  0  0  0  0  0  0
    0.0943   -1.2816    0.8820 O   0  0  0  0  0  0  0  0  0  0  0  0
    1.1813   -1.6564   -1.1665 O   0  0  0  0  0  0  0  0  0  0  0  0
    2.0494    0.8229    1.3680 O   0  0  0  0  0  0  0  0  0  0  0  0
    0.4184    0.9480   -1.8205 O   0  0  0  0  0  0  0  0  0  0  0  0
   -0.6271    1.6738    1.6037 O   0  0  0  0  0  0  0  0  0  0  0  0
   -3.0828   -0.4836   -0.6779 O   0  0  0  0  0  0  0  0  0  0  0  0
   -1.8369   -2.1452   -0.5541 H   0  0  0  0  0  0  0  0  0  0  0  0
   -1.2676   -0.8202   -1.6039 H   0  0  0  0  0  0  0  0  0  0  0  0
    0.8706   -0.9733   -1.7876 H   0  0  0  0  0  0  0  0  0  0  0  0
    2.8001    0.3254    1.7224 H   0  0  0  0  0  0  0  0  0  0  0  0
   -0.1010    1.6457   -2.2446 H   0  0  0  0  0  0  0  0  0  0  0  0
    0.1908    1.3963    2.0497 H   0  0  0  0  0  0  0  0  0  0  0  0
   -3.6074   -0.8915   -1.3811 H   0  0  0  0  0  0  0  0  0  0  0  0
  1  2  1  0  0  0  0
  2  3  1  0  0  0  0
  2  4  1  0  0  0  0
  4  5  1  0  0  0  0
  4  6  1  0  0  0  0
  6  7  1  0  0  0  0
  6  8  1  0  0  0  0
  8  9  1  0  0  0  0
  8 10  1  0  0  0  0
 10 11  1  0  0  0  0
  2 12  1  0  0  0  0
 10 12  1  0  0  0  0
 10 13  1  0  0  0  0
  8 14  1  0  0  0  0
  6 15  1  0  0  0  0
  4 16  1  0  0  0  0
  1 17  1  0  0  0  0
  1 18  1  0  0  0  0
  1 19  1  0  0  0  0
 13 20  1  0  0  0  0
 14 21  1  0  0  0  0
 15 22  1  0  0  0  0
 16 23  1  0  0  0  0
 17 24  1  0  0  0  0
M  END
