 xtb: 6.7.1 (edcfbbe)
          04032521303D

 19 19  0     0  0            999 V2000
   -1.7945   -0.0001    0.1539 C   0  0  0  0  0  0  0  0  0  0  0  0
   -0.9453   -1.2520    0.3531 C   0  0  0  0  0  0  0  0  0  0  0  0
    0.2351   -1.2614   -0.6165 C   0  0  0  0  0  0  0  0  0  0  0  0
    1.0994    0.0001   -0.4874 C   0  0  0  0  0  0  0  0  0  0  0  0
    0.2349    1.2615   -0.6164 C   0  0  0  0  0  0  0  0  0  0  0  0
   -0.9454    1.2519    0.3532 C   0  0  0  0  0  0  0  0  0  0  0  0
    1.8737    0.0002    0.6985 O   0  0  0  0  0  0  0  0  0  0  0  0
   -2.6291   -0.0002    0.8575 H   0  0  0  0  0  0  0  0  0  0  0  0
   -2.2062   -0.0001   -0.8575 H   0  0  0  0  0  0  0  0  0  0  0  0
   -0.5827   -1.2880    1.3831 H   0  0  0  0  0  0  0  0  0  0  0  0
   -1.5511   -2.1450    0.1896 H   0  0  0  0  0  0  0  0  0  0  0  0
    0.8629   -2.1364   -0.4365 H   0  0  0  0  0  0  0  0  0  0  0  0
   -0.1370   -1.3148   -1.6407 H   0  0  0  0  0  0  0  0  0  0  0  0
    1.8512    0.0002   -1.2865 H   0  0  0  0  0  0  0  0  0  0  0  0
    0.8625    2.1365   -0.4362 H   0  0  0  0  0  0  0  0  0  0  0  0
   -0.1372    1.3149   -1.6407 H   0  0  0  0  0  0  0  0  0  0  0  0
   -0.5827    1.2878    1.3832 H   0  0  0  0  0  0  0  0  0  0  0  0
   -1.5514    2.1448    0.1899 H   0  0  0  0  0  0  0  0  0  0  0  0
    1.2723   -0.0014    1.4557 H   0  0  0  0  0  0  0  0  0  0  0  0
  1  2  1  0  0  0  0
  2  3  1  0  0  0  0
  3  4  1  0  0  0  0
  4  5  1  0  0  0  0
  1  6  1  0  0  0  0
  5  6  1  0  0  0  0
  4  7  1  0  0  0  0
  1  8  1  0  0  0  0
  1  9  1  0  0  0  0
  2 10  1  0  0  0  0
  2 11  1  0  0  0  0
  3 12  1  0  0  0  0
  3 13  1  0  0  0  0
  4 14  1  0  0  0  0
  5 15  1  0  0  0  0
  5 16  1  0  0  0  0
  6 17  1  0  0  0  0
  6 18  1  0  0  0  0
  7 19  1  0  0  0  0
M  END
