 xtb: 6.7.1 (edcfbbe)
          04042523513D

 17 17  0     0  0            999 V2000
    2.8729   -0.7456    0.1164 C   0  0  0  0  0  0  0  0  0  0  0  0
    1.9954    0.4796   -0.1046 C   0  0  0  0  0  0  0  0  0  0  0  0
    0.5146    0.2312   -0.0470 C   0  0  0  0  0  0  0  0  0  0  0  0
   -0.3624    1.2978   -0.2440 C   0  0  0  0  0  0  0  0  0  0  0  0
   -1.7254    1.0755   -0.1921 C   0  0  0  0  0  0  0  0  0  0  0  0
   -2.2663   -0.1136    0.0386 N   0  0  0  0  0  0  0  0  0  0  0  0
   -1.4361   -1.1271    0.2261 C   0  0  0  0  0  0  0  0  0  0  0  0
   -0.0548   -1.0133    0.1944 C   0  0  0  0  0  0  0  0  0  0  0  0
    3.9200   -0.4598    0.0541 H   0  0  0  0  0  0  0  0  0  0  0  0
    2.6812   -1.5019   -0.6410 H   0  0  0  0  0  0  0  0  0  0  0  0
    2.6966   -1.1768    1.0989 H   0  0  0  0  0  0  0  0  0  0  0  0
    2.2242    0.9166   -1.0808 H   0  0  0  0  0  0  0  0  0  0  0  0
    2.2375    1.2377    0.6457 H   0  0  0  0  0  0  0  0  0  0  0  0
    0.0190    2.2892   -0.4356 H   0  0  0  0  0  0  0  0  0  0  0  0
   -2.4295    1.8835   -0.3415 H   0  0  0  0  0  0  0  0  0  0  0  0
   -1.9081   -2.0831    0.4121 H   0  0  0  0  0  0  0  0  0  0  0  0
    0.5522   -1.8881    0.3568 H   0  0  0  0  0  0  0  0  0  0  0  0
  1  2  1  0  0  0  0
  2  3  1  0  0  0  0
  3  4  4  0  0  0  0
  4  5  4  0  0  0  0
  5  6  4  0  0  0  0
  6  7  4  0  0  0  0
  3  8  4  0  0  0  0
  7  8  4  0  0  0  0
  1  9  1  0  0  0  0
  1 10  1  0  0  0  0
  1 11  1  0  0  0  0
  2 12  1  0  0  0  0
  2 13  1  0  0  0  0
  4 14  1  0  0  0  0
  5 15  1  0  0  0  0
  7 16  1  0  0  0  0
  8 17  1  0  0  0  0
M  END
