 xtb: 6.7.1 (edcfbbe)
          04042523483D

 16 15  0     0  0            999 V2000
    1.4528    0.4104    1.1766 C   0  0  0  0  0  0  0  0  0  0  0  0
    0.6847    0.4403   -0.1394 C   0  0  0  0  0  0  0  0  0  0  0  0
    1.3972   -0.4039   -1.2038 C   0  0  0  0  0  0  0  0  0  0  0  0
   -0.7688    0.0012   -0.0612 C   0  0  0  0  0  0  0  0  0  0  0  0
   -1.4458   -0.0613   -1.0722 O   0  0  0  0  0  0  0  0  0  0  0  0
   -1.3367   -0.3341    1.2832 C   0  0  0  0  0  0  0  0  0  0  0  0
    0.9885    1.0450    1.9252 H   0  0  0  0  0  0  0  0  0  0  0  0
    1.5224   -0.6025    1.5639 H   0  0  0  0  0  0  0  0  0  0  0  0
    2.4632    0.7742    1.0059 H   0  0  0  0  0  0  0  0  0  0  0  0
    0.6486    1.4737   -0.5073 H   0  0  0  0  0  0  0  0  0  0  0  0
    1.5017   -1.4307   -0.8600 H   0  0  0  0  0  0  0  0  0  0  0  0
    2.3854   -0.0010   -1.4058 H   0  0  0  0  0  0  0  0  0  0  0  0
    0.8207   -0.4054   -2.1259 H   0  0  0  0  0  0  0  0  0  0  0  0
   -2.3722   -0.6462    1.1759 H   0  0  0  0  0  0  0  0  0  0  0  0
   -1.2828    0.5375    1.9302 H   0  0  0  0  0  0  0  0  0  0  0  0
   -0.7556   -1.1296    1.7411 H   0  0  0  0  0  0  0  0  0  0  0  0
  1  2  1  0  0  0  0
  2  3  1  0  0  0  0
  2  4  1  0  0  0  0
  4  5  2  0  0  0  0
  4  6  1  0  0  0  0
  1  7  1  0  0  0  0
  1  8  1  0  0  0  0
  1  9  1  0  0  0  0
  2 10  1  0  0  0  0
  3 11  1  0  0  0  0
  3 12  1  0  0  0  0
  3 13  1  0  0  0  0
  6 14  1  0  0  0  0
  6 15  1  0  0  0  0
  6 16  1  0  0  0  0
M  END
