 xtb: 6.7.1 (edcfbbe)
          04062520053D

 27 27  0     0  0            999 V2000
   -3.3378    0.4922   -0.1992 C   0  0  0  0  0  0  0  0  0  0  0  0
   -1.8726    0.4733    0.0930 C   0  0  0  0  0  0  0  0  0  0  0  0
   -1.1106    1.5518    0.2312 C   0  0  0  0  0  0  0  0  0  0  0  0
    0.3476    1.3866    0.5116 C   0  0  0  0  0  0  0  0  0  0  0  0
    0.9865    0.3711   -0.4661 C   0  0  0  0  0  0  0  0  0  0  0  0
    1.1059    0.8832   -1.4250 H   0  0  0  0  0  0  0  0  0  0  0  0
    0.0717   -0.8490   -0.6900 C   0  0  0  0  0  0  0  0  0  0  0  0
   -1.1659   -0.8568    0.2281 C   0  0  0  0  0  0  0  0  0  0  0  0
   -0.8384   -0.9782    1.2694 H   0  0  0  0  0  0  0  0  0  0  0  0
   -1.9820   -1.9832   -0.0103 O   0  0  0  0  0  0  0  0  0  0  0  0
    2.3626   -0.0017    0.0408 C   0  0  0  0  0  0  0  0  0  0  0  0
    2.5456   -0.8420    1.0473 C   0  0  0  0  0  0  0  0  0  0  0  0
    3.5051    0.6782   -0.6491 C   0  0  0  0  0  0  0  0  0  0  0  0
   -3.5254    0.2210   -1.2383 H   0  0  0  0  0  0  0  0  0  0  0  0
   -3.7458    1.4839   -0.0253 H   0  0  0  0  0  0  0  0  0  0  0  0
   -3.8519   -0.2284    0.4343 H   0  0  0  0  0  0  0  0  0  0  0  0
   -1.5160    2.5484    0.1467 H   0  0  0  0  0  0  0  0  0  0  0  0
    0.8714    2.3397    0.4399 H   0  0  0  0  0  0  0  0  0  0  0  0
    0.4800    1.0090    1.5305 H   0  0  0  0  0  0  0  0  0  0  0  0
   -0.2903   -0.8452   -1.7209 H   0  0  0  0  0  0  0  0  0  0  0  0
    0.6264   -1.7756   -0.5382 H   0  0  0  0  0  0  0  0  0  0  0  0
   -2.2649   -1.9742   -0.9351 H   0  0  0  0  0  0  0  0  0  0  0  0
    3.5294   -1.0843    1.4116 H   0  0  0  0  0  0  0  0  0  0  0  0
    1.7247   -1.3272    1.5475 H   0  0  0  0  0  0  0  0  0  0  0  0
    4.4536    0.4126   -0.1910 H   0  0  0  0  0  0  0  0  0  0  0  0
    3.5301    0.3923   -1.6999 H   0  0  0  0  0  0  0  0  0  0  0  0
    3.3812    1.7592   -0.6015 H   0  0  0  0  0  0  0  0  0  0  0  0
  1  2  1  0  0  0  0
  2  3  2  0  0  0  0
  3  4  1  0  0  0  0
  4  5  1  0  0  0  0
  5  6  1  0  0  0  0
  5  7  1  0  0  0  0
  2  8  1  0  0  0  0
  7  8  1  0  0  0  0
  8  9  1  0  0  0  0
  8 10  1  0  0  0  0
  5 11  1  0  0  0  0
 11 12  2  0  0  0  0
 11 13  1  0  0  0  0
  1 14  1  0  0  0  0
  1 15  1  0  0  0  0
  1 16  1  0  0  0  0
  3 17  1  0  0  0  0
  4 18  1  0  0  0  0
  4 19  1  0  0  0  0
  7 20  1  0  0  0  0
  7 21  1  0  0  0  0
 10 22  1  0  0  0  0
 12 23  1  0  0  0  0
 12 24  1  0  0  0  0
 13 25  1  0  0  0  0
 13 26  1  0  0  0  0
 13 27  1  0  0  0  0
M  END
