 xtb: 6.7.1 (edcfbbe)
          04042522133D

 17 18  0     0  0            999 V2000
   -0.1546   -2.3478    0.1891 C   0  0  0  0  0  0  0  0  0  0  0  0
    0.4984   -1.0063    0.1200 C   0  0  0  0  0  0  0  0  0  0  0  0
    1.8916   -0.9547    0.1103 C   0  0  0  0  0  0  0  0  0  0  0  0
    2.5848    0.2331   -0.0184 C   0  0  0  0  0  0  0  0  0  0  0  0
    1.8959    1.4311   -0.1609 C   0  0  0  0  0  0  0  0  0  0  0  0
    0.5199    1.4165   -0.1687 C   0  0  0  0  0  0  0  0  0  0  0  0
   -0.1804    0.2140   -0.0189 C   0  0  0  0  0  0  0  0  0  0  0  0
   -1.5991    0.3289   -0.0208 N   0  0  0  0  0  0  0  0  0  0  0  0
   -2.2814   -0.4828    0.5858 O   0  0  0  0  0  0  0  0  0  0  0  0
   -2.0917    1.2746   -0.6224 O   0  0  0  0  0  0  0  0  0  0  0  0
    0.4046   -2.9946    0.8595 H   0  0  0  0  0  0  0  0  0  0  0  0
   -1.1834   -2.2962    0.5264 H   0  0  0  0  0  0  0  0  0  0  0  0
   -0.1369   -2.8019   -0.8017 H   0  0  0  0  0  0  0  0  0  0  0  0
    2.4361   -1.8811    0.2052 H   0  0  0  0  0  0  0  0  0  0  0  0
    3.6631    0.2286   -0.0107 H   0  0  0  0  0  0  0  0  0  0  0  0
    2.4270    2.3629   -0.2629 H   0  0  0  0  0  0  0  0  0  0  0  0
   -0.0484    2.3281   -0.2722 H   0  0  0  0  0  0  0  0  0  0  0  0
  1  2  1  0  0  0  0
  2  3  4  0  0  0  0
  3  4  4  0  0  0  0
  4  5  4  0  0  0  0
  5  6  4  0  0  0  0
  2  7  4  0  0  0  0
  6  7  4  0  0  0  0
  7  8  1  0  0  0  0
  8  9  4  0  0  0  0
  8 10  4  0  0  0  0
  9 10  1  0  0  0  0
  1 11  1  0  0  0  0
  1 12  1  0  0  0  0
  1 13  1  0  0  0  0
  3 14  1  0  0  0  0
  4 15  1  0  0  0  0
  5 16  1  0  0  0  0
  6 17  1  0  0  0  0
M  END
