 xtb: 6.7.1 (edcfbbe)
          04062505073D

 29 29  0     0  0            999 V2000
   -3.2216   -0.3285   -0.9477 C   0  0  0  0  0  0  0  0  0  0  0  0
   -1.7384   -0.2386   -0.5960 C   0  0  0  0  0  0  0  0  0  0  0  0
   -1.1761   -0.1686   -1.5324 H   0  0  0  0  0  0  0  0  0  0  0  0
   -1.2816   -1.4825    0.1837 C   0  0  0  0  0  0  0  0  0  0  0  0
   -0.1752   -1.1757    1.1995 C   0  0  0  0  0  0  0  0  0  0  0  0
    0.7853   -0.0811    0.7265 C   0  0  0  0  0  0  0  0  0  0  0  0
    1.5270    0.1209    1.5087 H   0  0  0  0  0  0  0  0  0  0  0  0
   -0.0003    1.1986    0.5449 C   0  0  0  0  0  0  0  0  0  0  0  0
    0.4958    2.2978    0.7135 O   0  0  0  0  0  0  0  0  0  0  0  0
   -1.4554    1.0306    0.2064 C   0  0  0  0  0  0  0  0  0  0  0  0
    1.5809   -0.4716   -0.5456 C   0  0  0  0  0  0  0  0  0  0  0  0
    2.2803    0.7383   -1.1619 C   0  0  0  0  0  0  0  0  0  0  0  0
    2.6182   -1.5424   -0.2104 C   0  0  0  0  0  0  0  0  0  0  0  0
   -3.8276   -0.3485   -0.0447 H   0  0  0  0  0  0  0  0  0  0  0  0
   -3.5257    0.5265   -1.5468 H   0  0  0  0  0  0  0  0  0  0  0  0
   -3.4187   -1.2337   -1.5164 H   0  0  0  0  0  0  0  0  0  0  0  0
   -2.1326   -1.9035    0.7215 H   0  0  0  0  0  0  0  0  0  0  0  0
   -0.9409   -2.2417   -0.5210 H   0  0  0  0  0  0  0  0  0  0  0  0
   -0.6235   -0.8390    2.1366 H   0  0  0  0  0  0  0  0  0  0  0  0
    0.3792   -2.0866    1.4220 H   0  0  0  0  0  0  0  0  0  0  0  0
   -1.9974    0.9936    1.1562 H   0  0  0  0  0  0  0  0  0  0  0  0
   -1.7988    1.9218   -0.3227 H   0  0  0  0  0  0  0  0  0  0  0  0
    0.8885   -0.8819   -1.2838 H   0  0  0  0  0  0  0  0  0  0  0  0
    1.5621    1.4676   -1.5306 H   0  0  0  0  0  0  0  0  0  0  0  0
    2.9056    0.4241   -1.9940 H   0  0  0  0  0  0  0  0  0  0  0  0
    2.9077    1.2341   -0.4241 H   0  0  0  0  0  0  0  0  0  0  0  0
    2.1517   -2.4342    0.1974 H   0  0  0  0  0  0  0  0  0  0  0  0
    3.3351   -1.1624    0.5141 H   0  0  0  0  0  0  0  0  0  0  0  0
    3.1587   -1.8257   -1.1101 H   0  0  0  0  0  0  0  0  0  0  0  0
  1  2  1  0  0  0  0
  2  3  1  0  0  0  0
  2  4  1  0  0  0  0
  4  5  1  0  0  0  0
  5  6  1  0  0  0  0
  6  7  1  0  0  0  0
  6  8  1  0  0  0  0
  8  9  2  0  0  0  0
  2 10  1  0  0  0  0
  8 10  1  0  0  0  0
  6 11  1  0  0  0  0
 11 12  1  0  0  0  0
 11 13  1  0  0  0  0
  1 14  1  0  0  0  0
  1 15  1  0  0  0  0
  1 16  1  0  0  0  0
  4 17  1  0  0  0  0
  4 18  1  0  0  0  0
  5 19  1  0  0  0  0
  5 20  1  0  0  0  0
 10 21  1  0  0  0  0
 10 22  1  0  0  0  0
 11 23  1  0  0  0  0
 12 24  1  0  0  0  0
 12 25  1  0  0  0  0
 12 26  1  0  0  0  0
 13 27  1  0  0  0  0
 13 28  1  0  0  0  0
 13 29  1  0  0  0  0
M  END
