 xtb: 6.7.1 (edcfbbe)
          04062518003D

 24 24  0     0  0            999 V2000
   -2.2337   -0.9577   -0.3806 C   0  0  0  0  0  0  0  0  0  0  0  0
   -1.1700   -0.2004    0.4325 C   0  0  0  0  0  0  0  0  0  0  0  0
   -1.6387    0.2174    1.3325 H   0  0  0  0  0  0  0  0  0  0  0  0
   -0.5833    0.9496   -0.4069 C   0  0  0  0  0  0  0  0  0  0  0  0
   -0.4555    0.6119   -1.4432 H   0  0  0  0  0  0  0  0  0  0  0  0
    0.7930    1.3191    0.1708 C   0  0  0  0  0  0  0  0  0  0  0  0
    0.7200    1.4715    1.2540 H   0  0  0  0  0  0  0  0  0  0  0  0
    1.7476    0.1394   -0.0728 C   0  0  0  0  0  0  0  0  0  0  0  0
    2.0561    0.1475   -1.1275 H   0  0  0  0  0  0  0  0  0  0  0  0
    1.0055   -1.2021    0.1698 C   0  0  0  0  0  0  0  0  0  0  0  0
    1.6423   -1.8443    0.7968 H   0  0  0  0  0  0  0  0  0  0  0  0
   -0.1561   -1.0641    0.9422 O   0  0  0  0  0  0  0  0  0  0  0  0
    0.7640   -1.7830   -1.0749 O   0  0  0  0  0  0  0  0  0  0  0  0
    2.8511    0.2902    0.7812 O   0  0  0  0  0  0  0  0  0  0  0  0
    1.2785    2.5297   -0.3368 O   0  0  0  0  0  0  0  0  0  0  0  0
   -1.4606    2.0402   -0.4747 O   0  0  0  0  0  0  0  0  0  0  0  0
   -2.8370   -2.0128    0.3227 O   0  0  0  0  0  0  0  0  0  0  0  0
   -1.7705   -1.4112   -1.2588 H   0  0  0  0  0  0  0  0  0  0  0  0
   -2.9775   -0.2219   -0.7143 H   0  0  0  0  0  0  0  0  0  0  0  0
    0.4137   -2.6799   -0.9584 H   0  0  0  0  0  0  0  0  0  0  0  0
    3.5909   -0.2550    0.4779 H   0  0  0  0  0  0  0  0  0  0  0  0
    1.3362    2.4861   -1.3026 H   0  0  0  0  0  0  0  0  0  0  0  0
   -1.3861    2.5750    0.3294 H   0  0  0  0  0  0  0  0  0  0  0  0
   -3.2607   -1.6708    1.1223 H   0  0  0  0  0  0  0  0  0  0  0  0
  1  2  1  0  0  0  0
  2  3  1  0  0  0  0
  2  4  1  0  0  0  0
  4  5  1  0  0  0  0
  4  6  1  0  0  0  0
  6  7  1  0  0  0  0
  6  8  1  0  0  0  0
  8  9  1  0  0  0  0
  8 10  1  0  0  0  0
 10 11  1  0  0  0  0
  2 12  1  0  0  0  0
 10 12  1  0  0  0  0
 10 13  1  0  0  0  0
  8 14  1  0  0  0  0
  6 15  1  0  0  0  0
  4 16  1  0  0  0  0
  1 17  1  0  0  0  0
  1 18  1  0  0  0  0
  1 19  1  0  0  0  0
 13 20  1  0  0  0  0
 14 21  1  0  0  0  0
 15 22  1  0  0  0  0
 16 23  1  0  0  0  0
 17 24  1  0  0  0  0
M  END
