 xtb: 6.7.1 (edcfbbe)
          04042520213D

 15 14  0     0  0            999 V2000
    2.0677    0.0308   -0.1261 C   0  0  0  0  0  0  0  0  0  0  0  0
    0.7631    0.6936    0.3006 C   0  0  0  0  0  0  0  0  0  0  0  0
   -0.4591    0.0059   -0.3232 C   0  0  0  0  0  0  0  0  0  0  0  0
   -0.3246   -0.0535   -1.4095 H   0  0  0  0  0  0  0  0  0  0  0  0
   -1.7429    0.7750   -0.0090 C   0  0  0  0  0  0  0  0  0  0  0  0
   -0.5592   -1.3475    0.0861 O   0  0  0  0  0  0  0  0  0  0  0  0
    2.2221    0.1529   -1.1958 H   0  0  0  0  0  0  0  0  0  0  0  0
    2.0349   -1.0343    0.0921 H   0  0  0  0  0  0  0  0  0  0  0  0
    2.9109    0.4711    0.3994 H   0  0  0  0  0  0  0  0  0  0  0  0
    0.7638    1.7415   -0.0012 H   0  0  0  0  0  0  0  0  0  0  0  0
    0.6712    0.6557    1.3888 H   0  0  0  0  0  0  0  0  0  0  0  0
   -2.6014    0.2383   -0.4051 H   0  0  0  0  0  0  0  0  0  0  0  0
   -1.8635    0.8864    1.0666 H   0  0  0  0  0  0  0  0  0  0  0  0
   -1.7069    1.7618   -0.4604 H   0  0  0  0  0  0  0  0  0  0  0  0
   -0.7224   -1.3685    1.0397 H   0  0  0  0  0  0  0  0  0  0  0  0
  1  2  1  0  0  0  0
  2  3  1  0  0  0  0
  3  4  1  0  0  0  0
  3  5  1  0  0  0  0
  3  6  1  0  0  0  0
  1  7  1  0  0  0  0
  1  8  1  0  0  0  0
  1  9  1  0  0  0  0
  2 10  1  0  0  0  0
  2 11  1  0  0  0  0
  5 12  1  0  0  0  0
  5 13  1  0  0  0  0
  5 14  1  0  0  0  0
  6 15  1  0  0  0  0
M  END
