 xtb: 6.7.1 (edcfbbe)
          04062518003D

 24 24  0     0  0            999 V2000
   -1.8047   -0.6048   -1.0998 C   0  0  0  0  0  0  0  0  0  0  0  0
   -1.2438   -0.5043    0.3366 C   0  0  0  0  0  0  0  0  0  0  0  0
   -2.0477   -0.7859    1.0299 H   0  0  0  0  0  0  0  0  0  0  0  0
   -0.7867    0.9156    0.6888 C   0  0  0  0  0  0  0  0  0  0  0  0
   -1.5845    1.6085    0.3906 H   0  0  0  0  0  0  0  0  0  0  0  0
    0.4789    1.3234   -0.0955 C   0  0  0  0  0  0  0  0  0  0  0  0
    1.0836    1.9813    0.5468 H   0  0  0  0  0  0  0  0  0  0  0  0
    1.3583    0.1077   -0.4240 C   0  0  0  0  0  0  0  0  0  0  0  0
    1.0881   -0.2914   -1.4141 H   0  0  0  0  0  0  0  0  0  0  0  0
    1.1046   -1.0089    0.5965 C   0  0  0  0  0  0  0  0  0  0  0  0
    1.3258   -0.6300    1.6142 H   0  0  0  0  0  0  0  0  0  0  0  0
   -0.2222   -1.4735    0.5433 O   0  0  0  0  0  0  0  0  0  0  0  0
    1.9429   -2.0668    0.2764 O   0  0  0  0  0  0  0  0  0  0  0  0
    2.7011    0.5189   -0.4083 O   0  0  0  0  0  0  0  0  0  0  0  0
    0.0653    2.0098   -1.2510 O   0  0  0  0  0  0  0  0  0  0  0  0
   -0.5816    0.9642    2.0806 O   0  0  0  0  0  0  0  0  0  0  0  0
   -3.1640   -0.2536   -1.1679 O   0  0  0  0  0  0  0  0  0  0  0  0
   -1.7466   -1.6530   -1.4017 H   0  0  0  0  0  0  0  0  0  0  0  0
   -1.2110    0.0034   -1.7884 H   0  0  0  0  0  0  0  0  0  0  0  0
    1.6526   -2.8601    0.7513 H   0  0  0  0  0  0  0  0  0  0  0  0
    3.2668   -0.2651   -0.4771 H   0  0  0  0  0  0  0  0  0  0  0  0
    0.8424    2.3544   -1.7144 H   0  0  0  0  0  0  0  0  0  0  0  0
   -0.5354    1.8844    2.3789 H   0  0  0  0  0  0  0  0  0  0  0  0
   -3.2582    0.7069   -1.1093 H   0  0  0  0  0  0  0  0  0  0  0  0
  1  2  1  0  0  0  0
  2  3  1  0  0  0  0
  2  4  1  0  0  0  0
  4  5  1  0  0  0  0
  4  6  1  0  0  0  0
  6  7  1  0  0  0  0
  6  8  1  0  0  0  0
  8  9  1  0  0  0  0
  8 10  1  0  0  0  0
 10 11  1  0  0  0  0
  2 12  1  0  0  0  0
 10 12  1  0  0  0  0
 10 13  1  0  0  0  0
  8 14  1  0  0  0  0
  6 15  1  0  0  0  0
  4 16  1  0  0  0  0
  1 17  1  0  0  0  0
  1 18  1  0  0  0  0
  1 19  1  0  0  0  0
 13 20  1  0  0  0  0
 14 21  1  0  0  0  0
 15 22  1  0  0  0  0
 16 23  1  0  0  0  0
 17 24  1  0  0  0  0
M  END
