 xtb: 6.7.1 (edcfbbe)
          04062518003D

 24 24  0     0  0            999 V2000
   -2.0818   -1.3480   -0.1613 C   0  0  0  0  0  0  0  0  0  0  0  0
   -1.0303   -0.4981    0.5703 C   0  0  0  0  0  0  0  0  0  0  0  0
   -1.4781   -0.1346    1.5038 H   0  0  0  0  0  0  0  0  0  0  0  0
   -0.6263    0.7195   -0.2687 C   0  0  0  0  0  0  0  0  0  0  0  0
   -0.4998    0.4270   -1.3245 H   0  0  0  0  0  0  0  0  0  0  0  0
    0.7259    1.2294    0.2360 C   0  0  0  0  0  0  0  0  0  0  0  0
    0.6929    1.3436    1.3294 H   0  0  0  0  0  0  0  0  0  0  0  0
    1.7853    0.1765   -0.1097 C   0  0  0  0  0  0  0  0  0  0  0  0
    2.0119    0.2601   -1.1822 H   0  0  0  0  0  0  0  0  0  0  0  0
    1.2176   -1.2465    0.1240 C   0  0  0  0  0  0  0  0  0  0  0  0
    1.9588   -1.8355    0.6846 H   0  0  0  0  0  0  0  0  0  0  0  0
    0.0961   -1.2716    0.9701 O   0  0  0  0  0  0  0  0  0  0  0  0
    0.9582   -1.8064   -1.1259 O   0  0  0  0  0  0  0  0  0  0  0  0
    2.9198    0.4444    0.6731 O   0  0  0  0  0  0  0  0  0  0  0  0
    0.9823    2.4634   -0.3845 O   0  0  0  0  0  0  0  0  0  0  0  0
   -1.6405    1.6841   -0.1610 O   0  0  0  0  0  0  0  0  0  0  0  0
   -3.3394   -0.7210   -0.1761 O   0  0  0  0  0  0  0  0  0  0  0  0
   -2.2135   -2.2932    0.3708 H   0  0  0  0  0  0  0  0  0  0  0  0
   -1.7408   -1.5547   -1.1857 H   0  0  0  0  0  0  0  0  0  0  0  0
    0.7496   -2.7489   -1.0355 H   0  0  0  0  0  0  0  0  0  0  0  0
    3.6740   -0.0791    0.3667 H   0  0  0  0  0  0  0  0  0  0  0  0
    1.8310    2.8057   -0.0702 H   0  0  0  0  0  0  0  0  0  0  0  0
   -1.2795    2.5340   -0.4604 H   0  0  0  0  0  0  0  0  0  0  0  0
   -3.2192    0.2142   -0.4068 H   0  0  0  0  0  0  0  0  0  0  0  0
  1  2  1  0  0  0  0
  2  3  1  0  0  0  0
  2  4  1  0  0  0  0
  4  5  1  0  0  0  0
  4  6  1  0  0  0  0
  6  7  1  0  0  0  0
  6  8  1  0  0  0  0
  8  9  1  0  0  0  0
  8 10  1  0  0  0  0
 10 11  1  0  0  0  0
  2 12  1  0  0  0  0
 10 12  1  0  0  0  0
 10 13  1  0  0  0  0
  8 14  1  0  0  0  0
  6 15  1  0  0  0  0
  4 16  1  0  0  0  0
  1 17  1  0  0  0  0
  1 18  1  0  0  0  0
  1 19  1  0  0  0  0
 13 20  1  0  0  0  0
 14 21  1  0  0  0  0
 15 22  1  0  0  0  0
 16 23  1  0  0  0  0
 17 24  1  0  0  0  0
M  END
