 xtb: 6.7.1 (edcfbbe)
          04042521543D

 16 15  0     0  0            999 V2000
    1.4757    0.1268    1.1664 C   0  0  0  0  0  0  0  0  0  0  0  0
    0.7220   -0.1524   -0.1009 C   0  0  0  0  0  0  0  0  0  0  0  0
    1.3239   -0.6664   -1.1683 C   0  0  0  0  0  0  0  0  0  0  0  0
   -0.7220    0.1524   -0.1009 C   0  0  0  0  0  0  0  0  0  0  0  0
   -1.3239    0.6664   -1.1683 C   0  0  0  0  0  0  0  0  0  0  0  0
   -1.4757   -0.1268    1.1665 C   0  0  0  0  0  0  0  0  0  0  0  0
    1.2965    1.1490    1.4957 H   0  0  0  0  0  0  0  0  0  0  0  0
    2.5423   -0.0110    1.0115 H   0  0  0  0  0  0  0  0  0  0  0  0
    1.1518   -0.5456    1.9588 H   0  0  0  0  0  0  0  0  0  0  0  0
    0.7839   -0.9002   -2.0695 H   0  0  0  0  0  0  0  0  0  0  0  0
    2.3787   -0.8845   -1.1731 H   0  0  0  0  0  0  0  0  0  0  0  0
   -2.3786    0.8848   -1.1730 H   0  0  0  0  0  0  0  0  0  0  0  0
   -0.7839    0.9003   -2.0694 H   0  0  0  0  0  0  0  0  0  0  0  0
   -1.2965   -1.1489    1.4957 H   0  0  0  0  0  0  0  0  0  0  0  0
   -1.1518    0.5456    1.9588 H   0  0  0  0  0  0  0  0  0  0  0  0
   -2.5423    0.0110    1.0116 H   0  0  0  0  0  0  0  0  0  0  0  0
  1  2  1  0  0  0  0
  2  3  2  0  0  0  0
  2  4  1  0  0  0  0
  4  5  2  0  0  0  0
  4  6  1  0  0  0  0
  1  7  1  0  0  0  0
  1  8  1  0  0  0  0
  1  9  1  0  0  0  0
  3 10  1  0  0  0  0
  3 11  1  0  0  0  0
  5 12  1  0  0  0  0
  5 13  1  0  0  0  0
  6 14  1  0  0  0  0
  6 15  1  0  0  0  0
  6 16  1  0  0  0  0
M  END
