 xtb: 6.7.1 (edcfbbe)
          04032521463D

 13 13  0     0  0            999 V2000
   -3.4876    0.2858   -0.0000 C   0  0  0  0  0  0  0  0  0  0  0  0
   -2.7567    1.4631    0.0000 C   0  0  0  0  0  0  0  0  0  0  0  0
   -1.3750    1.4106    0.0001 C   0  0  0  0  0  0  0  0  0  0  0  0
   -0.7337    0.1858    0.0001 C   0  0  0  0  0  0  0  0  0  0  0  0
   -1.4485   -1.0084    0.0000 C   0  0  0  0  0  0  0  0  0  0  0  0
   -2.8424   -0.9333   -0.0000 C   0  0  0  0  0  0  0  0  0  0  0  0
   -0.8922   -2.2373   -0.0000 O   0  0  0  0  0  0  0  0  0  0  0  0
    1.4039    0.1413   -0.0000 I   0  0  0  0  0  0  0  0  0  0  0  0
   -4.5653    0.3162    0.0001 H   0  0  0  0  0  0  0  0  0  0  0  0
   -3.2537    2.4192    0.0000 H   0  0  0  0  0  0  0  0  0  0  0  0
   -0.7953    2.3202    0.0001 H   0  0  0  0  0  0  0  0  0  0  0  0
   -3.3882   -1.8629   -0.0000 H   0  0  0  0  0  0  0  0  0  0  0  0
    0.0780   -2.1926    0.0000 H   0  0  0  0  0  0  0  0  0  0  0  0
  1  2  4  0  0  0  0
  2  3  4  0  0  0  0
  3  4  4  0  0  0  0
  4  5  4  0  0  0  0
  1  6  4  0  0  0  0
  5  6  4  0  0  0  0
  5  7  1  0  0  0  0
  4  8  1  0  0  0  0
  1  9  1  0  0  0  0
  2 10  1  0  0  0  0
  3 11  1  0  0  0  0
  6 12  1  0  0  0  0
  7 13  1  0  0  0  0
M  END
