 xtb: 6.7.1 (edcfbbe)
          04032522133D

 12 11  0     0  0            999 V2000
    1.4606   -0.3450   -0.4955 C   0  0  0  0  0  0  0  0  0  0  0  0
    0.6770    0.4653    0.5289 C   0  0  0  0  0  0  0  0  0  0  0  0
   -0.8123    0.3288    0.4416 C   0  0  0  0  0  0  0  0  0  0  0  0
   -1.4899   -0.4091   -0.4179 C   0  0  0  0  0  0  0  0  0  0  0  0
    1.2552   -1.4067   -0.3826 H   0  0  0  0  0  0  0  0  0  0  0  0
    2.5272   -0.1853   -0.3572 H   0  0  0  0  0  0  0  0  0  0  0  0
    1.1966   -0.0430   -1.5060 H   0  0  0  0  0  0  0  0  0  0  0  0
    0.9257    1.5257    0.4216 H   0  0  0  0  0  0  0  0  0  0  0  0
    0.9843    0.1715    1.5375 H   0  0  0  0  0  0  0  0  0  0  0  0
   -1.3493    0.9133    1.1795 H   0  0  0  0  0  0  0  0  0  0  0  0
   -2.5662   -0.4432   -0.4026 H   0  0  0  0  0  0  0  0  0  0  0  0
   -1.0108   -1.0091   -1.1716 H   0  0  0  0  0  0  0  0  0  0  0  0
  1  2  1  0  0  0  0
  2  3  1  0  0  0  0
  3  4  2  0  0  0  0
  1  5  1  0  0  0  0
  1  6  1  0  0  0  0
  1  7  1  0  0  0  0
  2  8  1  0  0  0  0
  2  9  1  0  0  0  0
  3 10  1  0  0  0  0
  4 11  1  0  0  0  0
  4 12  1  0  0  0  0
M  END
