 xtb: 6.7.1 (edcfbbe)
          04062518003D

 24 24  0     0  0            999 V2000
   -2.0895   -1.3476   -0.1369 C   0  0  0  0  0  0  0  0  0  0  0  0
   -1.0118   -0.5037    0.5628 C   0  0  0  0  0  0  0  0  0  0  0  0
   -1.4372   -0.1257    1.5013 H   0  0  0  0  0  0  0  0  0  0  0  0
   -0.6089    0.6993   -0.2986 C   0  0  0  0  0  0  0  0  0  0  0  0
   -0.4641    0.3853   -1.3444 H   0  0  0  0  0  0  0  0  0  0  0  0
    0.7279    1.2422    0.2161 C   0  0  0  0  0  0  0  0  0  0  0  0
    0.6409    1.4201    1.3003 H   0  0  0  0  0  0  0  0  0  0  0  0
    1.8155    0.1855   -0.0411 C   0  0  0  0  0  0  0  0  0  0  0  0
    2.1808    0.3006   -1.0670 H   0  0  0  0  0  0  0  0  0  0  0  0
    1.2238   -1.2401    0.0772 C   0  0  0  0  0  0  0  0  0  0  0  0
    1.9675   -1.8828    0.5699 H   0  0  0  0  0  0  0  0  0  0  0  0
    0.1135   -1.2907    0.9422 O   0  0  0  0  0  0  0  0  0  0  0  0
    0.9259   -1.6977   -1.2028 O   0  0  0  0  0  0  0  0  0  0  0  0
    2.9330    0.3673    0.7875 O   0  0  0  0  0  0  0  0  0  0  0  0
    0.9870    2.4521   -0.4522 O   0  0  0  0  0  0  0  0  0  0  0  0
   -1.6377    1.6527   -0.2211 O   0  0  0  0  0  0  0  0  0  0  0  0
   -3.3444   -0.7162   -0.1111 O   0  0  0  0  0  0  0  0  0  0  0  0
   -2.2073   -2.2928    0.3986 H   0  0  0  0  0  0  0  0  0  0  0  0
   -1.7809   -1.5549   -1.1711 H   0  0  0  0  0  0  0  0  0  0  0  0
    0.7648   -2.6536   -1.1919 H   0  0  0  0  0  0  0  0  0  0  0  0
    2.6851    0.2314    1.7142 H   0  0  0  0  0  0  0  0  0  0  0  0
    1.8620    2.7791   -0.1999 H   0  0  0  0  0  0  0  0  0  0  0  0
   -1.2977    2.4909   -0.5723 H   0  0  0  0  0  0  0  0  0  0  0  0
   -3.2300    0.2124   -0.3706 H   0  0  0  0  0  0  0  0  0  0  0  0
  1  2  1  0  0  0  0
  2  3  1  0  0  0  0
  2  4  1  0  0  0  0
  4  5  1  0  0  0  0
  4  6  1  0  0  0  0
  6  7  1  0  0  0  0
  6  8  1  0  0  0  0
  8  9  1  0  0  0  0
  8 10  1  0  0  0  0
 10 11  1  0  0  0  0
  2 12  1  0  0  0  0
 10 12  1  0  0  0  0
 10 13  1  0  0  0  0
  8 14  1  0  0  0  0
  6 15  1  0  0  0  0
  4 16  1  0  0  0  0
  1 17  1  0  0  0  0
  1 18  1  0  0  0  0
  1 19  1  0  0  0  0
 13 20  1  0  0  0  0
 14 21  1  0  0  0  0
 15 22  1  0  0  0  0
 16 23  1  0  0  0  0
 17 24  1  0  0  0  0
M  END
