 xtb: 6.7.1 (edcfbbe)
          04052518533D

 23 23  0     0  0            999 V2000
   -2.7782    0.7991    0.2568 C   0  0  0  0  0  0  0  0  0  0  0  0
   -1.6518   -0.1514   -0.0281 C   0  0  0  0  0  0  0  0  0  0  0  0
   -1.7774   -1.0985   -0.7794 O   0  0  0  0  0  0  0  0  0  0  0  0
   -0.3477    0.1682    0.6743 C   0  0  0  0  0  0  0  0  0  0  0  0
    0.3475    1.2867   -0.1348 C   0  0  0  0  0  0  0  0  0  0  0  0
    1.8478    1.2690    0.1348 C   0  0  0  0  0  0  0  0  0  0  0  0
    2.4843   -0.0064   -0.4305 C   0  0  0  0  0  0  0  0  0  0  0  0
    1.4974   -1.1790   -0.4039 C   0  0  0  0  0  0  0  0  0  0  0  0
    0.5584   -1.0678    0.7921 C   0  0  0  0  0  0  0  0  0  0  0  0
   -3.6041    0.6214   -0.4264 H   0  0  0  0  0  0  0  0  0  0  0  0
   -3.1185    0.6334    1.2771 H   0  0  0  0  0  0  0  0  0  0  0  0
   -2.4373    1.8270    0.1784 H   0  0  0  0  0  0  0  0  0  0  0  0
   -0.5771    0.5490    1.6726 H   0  0  0  0  0  0  0  0  0  0  0  0
    0.1729    1.1361   -1.2025 H   0  0  0  0  0  0  0  0  0  0  0  0
   -0.0715    2.2545    0.1408 H   0  0  0  0  0  0  0  0  0  0  0  0
    2.3131    2.1467   -0.3154 H   0  0  0  0  0  0  0  0  0  0  0  0
    2.0107    1.3243    1.2121 H   0  0  0  0  0  0  0  0  0  0  0  0
    2.8087    0.1629   -1.4586 H   0  0  0  0  0  0  0  0  0  0  0  0
    3.3702   -0.2556    0.1555 H   0  0  0  0  0  0  0  0  0  0  0  0
    0.8953   -1.1943   -1.3142 H   0  0  0  0  0  0  0  0  0  0  0  0
    2.0428   -2.1229   -0.3603 H   0  0  0  0  0  0  0  0  0  0  0  0
   -0.0670   -1.9614    0.8483 H   0  0  0  0  0  0  0  0  0  0  0  0
    1.1468   -1.0089    1.7086 H   0  0  0  0  0  0  0  0  0  0  0  0
  1  2  1  0  0  0  0
  2  3  2  0  0  0  0
  2  4  1  0  0  0  0
  4  5  1  0  0  0  0
  5  6  1  0  0  0  0
  6  7  1  0  0  0  0
  7  8  1  0  0  0  0
  4  9  1  0  0  0  0
  8  9  1  0  0  0  0
  1 10  1  0  0  0  0
  1 11  1  0  0  0  0
  1 12  1  0  0  0  0
  4 13  1  0  0  0  0
  5 14  1  0  0  0  0
  5 15  1  0  0  0  0
  6 16  1  0  0  0  0
  6 17  1  0  0  0  0
  7 18  1  0  0  0  0
  7 19  1  0  0  0  0
  8 20  1  0  0  0  0
  8 21  1  0  0  0  0
  9 22  1  0  0  0  0
  9 23  1  0  0  0  0
M  END
