 xtb: 6.7.1 (edcfbbe)
          04062518003D

 24 24  0     0  0            999 V2000
   -2.5610   -0.6663   -0.3583 C   0  0  0  0  0  0  0  0  0  0  0  0
   -1.1918   -0.2930    0.2179 C   0  0  0  0  0  0  0  0  0  0  0  0
   -1.2658   -0.2423    1.3149 H   0  0  0  0  0  0  0  0  0  0  0  0
   -0.7153    1.0685   -0.3055 C   0  0  0  0  0  0  0  0  0  0  0  0
   -0.7209    1.0413   -1.4082 H   0  0  0  0  0  0  0  0  0  0  0  0
    0.7229    1.3331    0.1815 C   0  0  0  0  0  0  0  0  0  0  0  0
    0.7043    1.4237    1.2752 H   0  0  0  0  0  0  0  0  0  0  0  0
    1.6253    0.1578   -0.2243 C   0  0  0  0  0  0  0  0  0  0  0  0
    1.6398    0.0726   -1.3180 H   0  0  0  0  0  0  0  0  0  0  0  0
    1.0172   -1.1430    0.3544 C   0  0  0  0  0  0  0  0  0  0  0  0
    0.9836   -1.0738    1.4552 H   0  0  0  0  0  0  0  0  0  0  0  0
   -0.2880   -1.3178   -0.1571 O   0  0  0  0  0  0  0  0  0  0  0  0
    1.7571   -2.2670    0.0683 O   0  0  0  0  0  0  0  0  0  0  0  0
    2.9635    0.3378    0.1451 O   0  0  0  0  0  0  0  0  0  0  0  0
    1.1887    2.5769   -0.2788 O   0  0  0  0  0  0  0  0  0  0  0  0
   -1.5950    2.0591    0.1556 O   0  0  0  0  0  0  0  0  0  0  0  0
   -3.0908   -1.8209    0.2356 O   0  0  0  0  0  0  0  0  0  0  0  0
   -2.4601   -0.7979   -1.4429 H   0  0  0  0  0  0  0  0  0  0  0  0
   -3.2594    0.1457   -0.1521 H   0  0  0  0  0  0  0  0  0  0  0  0
    1.7476   -2.4397   -0.8864 H   0  0  0  0  0  0  0  0  0  0  0  0
    3.0462    0.4004    1.1071 H   0  0  0  0  0  0  0  0  0  0  0  0
    1.4951    2.5029   -1.1941 H   0  0  0  0  0  0  0  0  0  0  0  0
   -1.1618    2.9227    0.0545 H   0  0  0  0  0  0  0  0  0  0  0  0
   -2.4581   -2.5444    0.1151 H   0  0  0  0  0  0  0  0  0  0  0  0
  1  2  1  0  0  0  0
  2  3  1  0  0  0  0
  2  4  1  0  0  0  0
  4  5  1  0  0  0  0
  4  6  1  0  0  0  0
  6  7  1  0  0  0  0
  6  8  1  0  0  0  0
  8  9  1  0  0  0  0
  8 10  1  0  0  0  0
 10 11  1  0  0  0  0
  2 12  1  0  0  0  0
 10 12  1  0  0  0  0
 10 13  1  0  0  0  0
  8 14  1  0  0  0  0
  6 15  1  0  0  0  0
  4 16  1  0  0  0  0
  1 17  1  0  0  0  0
  1 18  1  0  0  0  0
  1 19  1  0  0  0  0
 13 20  1  0  0  0  0
 14 21  1  0  0  0  0
 15 22  1  0  0  0  0
 16 23  1  0  0  0  0
 17 24  1  0  0  0  0
M  END
