 xtb: 6.7.1 (edcfbbe)
          04062518003D

 24 24  0     0  0            999 V2000
   -2.3266   -0.9896   -0.2925 C   0  0  0  0  0  0  0  0  0  0  0  0
   -0.9329   -0.5260    0.1450 C   0  0  0  0  0  0  0  0  0  0  0  0
   -0.8349   -0.7027    1.2289 H   0  0  0  0  0  0  0  0  0  0  0  0
   -0.7178    0.9793   -0.1250 C   0  0  0  0  0  0  0  0  0  0  0  0
   -1.2795    1.2696   -1.0206 H   0  0  0  0  0  0  0  0  0  0  0  0
    0.7803    1.2676   -0.3843 C   0  0  0  0  0  0  0  0  0  0  0  0
    0.9895    2.2842   -0.0164 H   0  0  0  0  0  0  0  0  0  0  0  0
    1.6449    0.2942    0.4289 C   0  0  0  0  0  0  0  0  0  0  0  0
    2.6947    0.4615    0.1634 H   0  0  0  0  0  0  0  0  0  0  0  0
    1.3141   -1.1676    0.0351 C   0  0  0  0  0  0  0  0  0  0  0  0
    1.3365   -1.7827    0.9653 H   0  0  0  0  0  0  0  0  0  0  0  0
    0.0356   -1.2967   -0.5403 O   0  0  0  0  0  0  0  0  0  0  0  0
    2.2578   -1.6226   -0.8642 O   0  0  0  0  0  0  0  0  0  0  0  0
    1.3903    0.5476    1.7881 O   0  0  0  0  0  0  0  0  0  0  0  0
    1.1417    1.1377   -1.7316 O   0  0  0  0  0  0  0  0  0  0  0  0
   -1.2335    1.7667    0.9179 O   0  0  0  0  0  0  0  0  0  0  0  0
   -3.3362   -0.4623    0.5286 O   0  0  0  0  0  0  0  0  0  0  0  0
   -2.3885   -2.0761   -0.2025 H   0  0  0  0  0  0  0  0  0  0  0  0
   -2.4856   -0.7169   -1.3442 H   0  0  0  0  0  0  0  0  0  0  0  0
    1.8550   -2.3022   -1.4264 H   0  0  0  0  0  0  0  0  0  0  0  0
    2.1080    0.1988    2.3349 H   0  0  0  0  0  0  0  0  0  0  0  0
    0.6957    1.8160   -2.2590 H   0  0  0  0  0  0  0  0  0  0  0  0
   -0.6918    1.6309    1.7109 H   0  0  0  0  0  0  0  0  0  0  0  0
   -3.2225    0.4984    0.5995 H   0  0  0  0  0  0  0  0  0  0  0  0
  1  2  1  0  0  0  0
  2  3  1  0  0  0  0
  2  4  1  0  0  0  0
  4  5  1  0  0  0  0
  4  6  1  0  0  0  0
  6  7  1  0  0  0  0
  6  8  1  0  0  0  0
  8  9  1  0  0  0  0
  8 10  1  0  0  0  0
 10 11  1  0  0  0  0
  2 12  1  0  0  0  0
 10 12  1  0  0  0  0
 10 13  1  0  0  0  0
  8 14  1  0  0  0  0
  6 15  1  0  0  0  0
  4 16  1  0  0  0  0
  1 17  1  0  0  0  0
  1 18  1  0  0  0  0
  1 19  1  0  0  0  0
 13 20  1  0  0  0  0
 14 21  1  0  0  0  0
 15 22  1  0  0  0  0
 16 23  1  0  0  0  0
 17 24  1  0  0  0  0
M  END
