 xtb: 6.7.1 (edcfbbe)
          04062518003D

 24 24  0     0  0            999 V2000
   -2.5618   -0.6473   -0.3372 C   0  0  0  0  0  0  0  0  0  0  0  0
   -1.1830   -0.2880    0.2244 C   0  0  0  0  0  0  0  0  0  0  0  0
   -1.2407   -0.2437    1.3224 H   0  0  0  0  0  0  0  0  0  0  0  0
   -0.7057    1.0743   -0.2949 C   0  0  0  0  0  0  0  0  0  0  0  0
   -0.7084    1.0598   -1.3964 H   0  0  0  0  0  0  0  0  0  0  0  0
    0.7334    1.3342    0.1727 C   0  0  0  0  0  0  0  0  0  0  0  0
    0.7405    1.4330    1.2699 H   0  0  0  0  0  0  0  0  0  0  0  0
    1.6314    0.1549   -0.2111 C   0  0  0  0  0  0  0  0  0  0  0  0
    1.6902    0.0972   -1.3098 H   0  0  0  0  0  0  0  0  0  0  0  0
    1.0142   -1.1528    0.3246 C   0  0  0  0  0  0  0  0  0  0  0  0
    1.0135   -1.1150    1.4278 H   0  0  0  0  0  0  0  0  0  0  0  0
   -0.2910   -1.3176   -0.1678 O   0  0  0  0  0  0  0  0  0  0  0  0
    1.7649   -2.2567   -0.0367 O   0  0  0  0  0  0  0  0  0  0  0  0
    2.9058    0.3762    0.3390 O   0  0  0  0  0  0  0  0  0  0  0  0
    1.1616    2.5339   -0.4232 O   0  0  0  0  0  0  0  0  0  0  0  0
   -1.5827    2.0576    0.1828 O   0  0  0  0  0  0  0  0  0  0  0  0
   -3.0984   -1.7962    0.2617 O   0  0  0  0  0  0  0  0  0  0  0  0
   -2.4737   -0.7782   -1.4229 H   0  0  0  0  0  0  0  0  0  0  0  0
   -3.2486    0.1722   -0.1227 H   0  0  0  0  0  0  0  0  0  0  0  0
    1.5192   -2.5302   -0.9350 H   0  0  0  0  0  0  0  0  0  0  0  0
    3.4282   -0.4373    0.2683 H   0  0  0  0  0  0  0  0  0  0  0  0
    2.0931    2.6760   -0.1995 H   0  0  0  0  0  0  0  0  0  0  0  0
   -1.2220    2.9263   -0.0546 H   0  0  0  0  0  0  0  0  0  0  0  0
   -2.4792   -2.5292    0.1294 H   0  0  0  0  0  0  0  0  0  0  0  0
  1  2  1  0  0  0  0
  2  3  1  0  0  0  0
  2  4  1  0  0  0  0
  4  5  1  0  0  0  0
  4  6  1  0  0  0  0
  6  7  1  0  0  0  0
  6  8  1  0  0  0  0
  8  9  1  0  0  0  0
  8 10  1  0  0  0  0
 10 11  1  0  0  0  0
  2 12  1  0  0  0  0
 10 12  1  0  0  0  0
 10 13  1  0  0  0  0
  8 14  1  0  0  0  0
  6 15  1  0  0  0  0
  4 16  1  0  0  0  0
  1 17  1  0  0  0  0
  1 18  1  0  0  0  0
  1 19  1  0  0  0  0
 13 20  1  0  0  0  0
 14 21  1  0  0  0  0
 15 22  1  0  0  0  0
 16 23  1  0  0  0  0
 17 24  1  0  0  0  0
M  END
