 xtb: 6.7.1 (edcfbbe)
          04062520053D

 27 27  0     0  0            999 V2000
   -3.4251    0.6332    0.1337 C   0  0  0  0  0  0  0  0  0  0  0  0
   -1.9315    0.4981    0.0845 C   0  0  0  0  0  0  0  0  0  0  0  0
   -1.1347    1.4988   -0.2653 C   0  0  0  0  0  0  0  0  0  0  0  0
    0.3574    1.4246   -0.3221 C   0  0  0  0  0  0  0  0  0  0  0  0
    0.8557   -0.0248   -0.2819 C   0  0  0  0  0  0  0  0  0  0  0  0
    0.5859   -0.5036   -1.2290 H   0  0  0  0  0  0  0  0  0  0  0  0
    0.1065   -0.7665    0.8259 C   0  0  0  0  0  0  0  0  0  0  0  0
   -1.3751   -0.8586    0.4620 C   0  0  0  0  0  0  0  0  0  0  0  0
   -1.9341   -1.2431    1.3332 H   0  0  0  0  0  0  0  0  0  0  0  0
   -1.4970   -1.7998   -0.6011 O   0  0  0  0  0  0  0  0  0  0  0  0
    2.3550   -0.0775   -0.1286 C   0  0  0  0  0  0  0  0  0  0  0  0
    3.1364   -0.3336   -1.1667 C   0  0  0  0  0  0  0  0  0  0  0  0
    2.9191    0.1858    1.2347 C   0  0  0  0  0  0  0  0  0  0  0  0
   -3.9025   -0.0395   -0.5779 H   0  0  0  0  0  0  0  0  0  0  0  0
   -3.7251    1.6498   -0.1044 H   0  0  0  0  0  0  0  0  0  0  0  0
   -3.7924    0.3815    1.1281 H   0  0  0  0  0  0  0  0  0  0  0  0
   -1.5627    2.4608   -0.5169 H   0  0  0  0  0  0  0  0  0  0  0  0
    0.7154    1.9135   -1.2312 H   0  0  0  0  0  0  0  0  0  0  0  0
    0.7649    1.9853    0.5254 H   0  0  0  0  0  0  0  0  0  0  0  0
    0.4982   -1.7793    0.9321 H   0  0  0  0  0  0  0  0  0  0  0  0
    0.2029   -0.2407    1.7755 H   0  0  0  0  0  0  0  0  0  0  0  0
   -2.4194   -1.8393   -0.8840 H   0  0  0  0  0  0  0  0  0  0  0  0
    4.2101   -0.3545   -1.0819 H   0  0  0  0  0  0  0  0  0  0  0  0
    2.7344   -0.5366   -2.1453 H   0  0  0  0  0  0  0  0  0  0  0  0
    2.4916    1.0885    1.6658 H   0  0  0  0  0  0  0  0  0  0  0  0
    2.6885   -0.6439    1.9010 H   0  0  0  0  0  0  0  0  0  0  0  0
    3.9987    0.2983    1.1859 H   0  0  0  0  0  0  0  0  0  0  0  0
  1  2  1  0  0  0  0
  2  3  2  0  0  0  0
  3  4  1  0  0  0  0
  4  5  1  0  0  0  0
  5  6  1  0  0  0  0
  5  7  1  0  0  0  0
  2  8  1  0  0  0  0
  7  8  1  0  0  0  0
  8  9  1  0  0  0  0
  8 10  1  0  0  0  0
  5 11  1  0  0  0  0
 11 12  2  0  0  0  0
 11 13  1  0  0  0  0
  1 14  1  0  0  0  0
  1 15  1  0  0  0  0
  1 16  1  0  0  0  0
  3 17  1  0  0  0  0
  4 18  1  0  0  0  0
  4 19  1  0  0  0  0
  7 20  1  0  0  0  0
  7 21  1  0  0  0  0
 10 22  1  0  0  0  0
 12 23  1  0  0  0  0
 12 24  1  0  0  0  0
 13 25  1  0  0  0  0
 13 26  1  0  0  0  0
 13 27  1  0  0  0  0
M  END
