 xtb: 6.7.1 (edcfbbe)
          04042516153D

 13 13  0     0  0            999 V2000
    1.5808    1.3018   -0.0001 C   0  0  0  0  0  0  0  0  0  0  0  0
    0.1997    1.3679    0.0000 C   0  0  0  0  0  0  0  0  0  0  0  0
   -0.5268    0.1746    0.0000 C   0  0  0  0  0  0  0  0  0  0  0  0
    0.1876   -1.0295   -0.0000 C   0  0  0  0  0  0  0  0  0  0  0  0
    1.5039   -1.0918    0.0000 N   0  0  0  0  0  0  0  0  0  0  0  0
    2.1816    0.0487    0.0000 C   0  0  0  0  0  0  0  0  0  0  0  0
   -1.9876    0.1782    0.0000 C   0  0  0  0  0  0  0  0  0  0  0  0
   -2.6916   -0.8083   -0.0000 O   0  0  0  0  0  0  0  0  0  0  0  0
    2.1825    2.1956   -0.0001 H   0  0  0  0  0  0  0  0  0  0  0  0
   -0.3162    2.3165   -0.0002 H   0  0  0  0  0  0  0  0  0  0  0  0
   -0.3458   -1.9706   -0.0001 H   0  0  0  0  0  0  0  0  0  0  0  0
    3.2575   -0.0557   -0.0002 H   0  0  0  0  0  0  0  0  0  0  0  0
   -2.4390    1.1872    0.0001 H   0  0  0  0  0  0  0  0  0  0  0  0
  1  2  4  0  0  0  0
  2  3  4  0  0  0  0
  3  4  4  0  0  0  0
  4  5  4  0  0  0  0
  1  6  4  0  0  0  0
  5  6  4  0  0  0  0
  3  7  1  0  0  0  0
  7  8  2  0  0  0  0
  1  9  1  0  0  0  0
  2 10  1  0  0  0  0
  4 11  1  0  0  0  0
  6 12  1  0  0  0  0
  7 13  1  0  0  0  0
M  END
