 xtb: 6.7.1 (edcfbbe)
          04062518003D

 24 24  0     0  0            999 V2000
   -2.2779   -1.1014   -0.0844 C   0  0  0  0  0  0  0  0  0  0  0  0
   -0.8827   -0.5606    0.2557 C   0  0  0  0  0  0  0  0  0  0  0  0
   -0.7446   -0.5531    1.3471 H   0  0  0  0  0  0  0  0  0  0  0  0
   -0.7028    0.8750   -0.2686 C   0  0  0  0  0  0  0  0  0  0  0  0
   -1.0409    0.9119   -1.3164 H   0  0  0  0  0  0  0  0  0  0  0  0
    0.7854    1.2769   -0.2676 C   0  0  0  0  0  0  0  0  0  0  0  0
    0.8395    2.2611    0.2157 H   0  0  0  0  0  0  0  0  0  0  0  0
    1.6394    0.2649    0.5234 C   0  0  0  0  0  0  0  0  0  0  0  0
    2.7044    0.4849    0.3522 H   0  0  0  0  0  0  0  0  0  0  0  0
    1.4145   -1.1551   -0.0412 C   0  0  0  0  0  0  0  0  0  0  0  0
    1.7690   -1.8833    0.7056 H   0  0  0  0  0  0  0  0  0  0  0  0
    0.0613   -1.4292   -0.3439 O   0  0  0  0  0  0  0  0  0  0  0  0
    2.1701   -1.3695   -1.1805 O   0  0  0  0  0  0  0  0  0  0  0  0
    1.3550    0.2528    1.8979 O   0  0  0  0  0  0  0  0  0  0  0  0
    1.2301    1.3378   -1.6045 O   0  0  0  0  0  0  0  0  0  0  0  0
   -1.4110    1.8022    0.5142 O   0  0  0  0  0  0  0  0  0  0  0  0
   -3.2920   -0.3693    0.5610 O   0  0  0  0  0  0  0  0  0  0  0  0
   -2.3140   -2.1648    0.1691 H   0  0  0  0  0  0  0  0  0  0  0  0
   -2.4505   -0.9983   -1.1582 H   0  0  0  0  0  0  0  0  0  0  0  0
    1.8388   -0.7833   -1.8852 H   0  0  0  0  0  0  0  0  0  0  0  0
    1.5746    1.1122    2.2881 H   0  0  0  0  0  0  0  0  0  0  0  0
    1.9945    1.9269   -1.6750 H   0  0  0  0  0  0  0  0  0  0  0  0
   -2.3423    1.5211    0.5431 H   0  0  0  0  0  0  0  0  0  0  0  0
   -3.3416   -0.6341    1.4906 H   0  0  0  0  0  0  0  0  0  0  0  0
  1  2  1  0  0  0  0
  2  3  1  0  0  0  0
  2  4  1  0  0  0  0
  4  5  1  0  0  0  0
  4  6  1  0  0  0  0
  6  7  1  0  0  0  0
  6  8  1  0  0  0  0
  8  9  1  0  0  0  0
  8 10  1  0  0  0  0
 10 11  1  0  0  0  0
  2 12  1  0  0  0  0
 10 12  1  0  0  0  0
 10 13  1  0  0  0  0
  8 14  1  0  0  0  0
  6 15  1  0  0  0  0
  4 16  1  0  0  0  0
  1 17  1  0  0  0  0
  1 18  1  0  0  0  0
  1 19  1  0  0  0  0
 13 20  1  0  0  0  0
 14 21  1  0  0  0  0
 15 22  1  0  0  0  0
 16 23  1  0  0  0  0
 17 24  1  0  0  0  0
M  END
