 xtb: 6.7.1 (edcfbbe)
          04052509003D

 22 23  0     0  0            999 V2000
   -3.9191    1.4585    0.0234 C   0  0  0  0  0  0  0  0  0  0  0  0
   -3.3010    1.1104    1.2128 C   0  0  0  0  0  0  0  0  0  0  0  0
   -2.0020    0.6333    1.2070 C   0  0  0  0  0  0  0  0  0  0  0  0
   -1.3137    0.4999    0.0075 C   0  0  0  0  0  0  0  0  0  0  0  0
   -1.9370    0.8494   -1.1840 C   0  0  0  0  0  0  0  0  0  0  0  0
   -3.2354    1.3279   -1.1739 C   0  0  0  0  0  0  0  0  0  0  0  0
    0.0727   -0.0210   -0.0010 C   0  0  0  0  0  0  0  0  0  0  0  0
    1.1504    0.8423    0.1529 C   0  0  0  0  0  0  0  0  0  0  0  0
    2.4413    0.3433    0.1436 C   0  0  0  0  0  0  0  0  0  0  0  0
    2.6876   -1.0108   -0.0149 C   0  0  0  0  0  0  0  0  0  0  0  0
    1.6194   -1.8771   -0.1677 C   0  0  0  0  0  0  0  0  0  0  0  0
    0.3270   -1.3801   -0.1608 C   0  0  0  0  0  0  0  0  0  0  0  0
   -1.0111   -2.4730   -0.3524 Cl  0  0  0  0  0  0  0  0  0  0  0  0
    3.7755    1.4382    0.3356 Cl  0  0  0  0  0  0  0  0  0  0  0  0
   -4.9326    1.8297    0.0294 H   0  0  0  0  0  0  0  0  0  0  0  0
   -3.8315    1.2090    2.1478 H   0  0  0  0  0  0  0  0  0  0  0  0
   -1.5163    0.3574    2.1312 H   0  0  0  0  0  0  0  0  0  0  0  0
   -1.4005    0.7425   -2.1151 H   0  0  0  0  0  0  0  0  0  0  0  0
   -3.7142    1.5980   -2.1028 H   0  0  0  0  0  0  0  0  0  0  0  0
    0.9714    1.8982    0.2776 H   0  0  0  0  0  0  0  0  0  0  0  0
    3.6980   -1.3841   -0.0185 H   0  0  0  0  0  0  0  0  0  0  0  0
    1.7884   -2.9340   -0.2915 H   0  0  0  0  0  0  0  0  0  0  0  0
  1  2  4  0  0  0  0
  2  3  4  0  0  0  0
  3  4  4  0  0  0  0
  4  5  4  0  0  0  0
  1  6  4  0  0  0  0
  5  6  4  0  0  0  0
  4  7  1  0  0  0  0
  7  8  4  0  0  0  0
  8  9  4  0  0  0  0
  9 10  4  0  0  0  0
 10 11  4  0  0  0  0
  7 12  4  0  0  0  0
 11 12  4  0  0  0  0
 12 13  1  0  0  0  0
  9 14  1  0  0  0  0
  1 15  1  0  0  0  0
  2 16  1  0  0  0  0
  3 17  1  0  0  0  0
  5 18  1  0  0  0  0
  6 19  1  0  0  0  0
  8 20  1  0  0  0  0
 10 21  1  0  0  0  0
 11 22  1  0  0  0  0
M  END
