 xtb: 6.7.1 (edcfbbe)
          04042521073D

 15 14  0     0  0            999 V2000
   -1.5843    0.8986   -0.2868 C   0  0  0  0  0  0  0  0  0  0  0  0
   -1.3310   -0.4900    0.2850 C   0  0  0  0  0  0  0  0  0  0  0  0
    0.0800   -0.9914    0.4061 C   0  0  0  0  0  0  0  0  0  0  0  0
    1.2660   -0.4728    0.1215 C   0  0  0  0  0  0  0  0  0  0  0  0
    1.6586    0.8529   -0.4457 C   0  0  0  0  0  0  0  0  0  0  0  0
   -2.6572    1.0804   -0.3176 H   0  0  0  0  0  0  0  0  0  0  0  0
   -1.2006    0.9788   -1.3004 H   0  0  0  0  0  0  0  0  0  0  0  0
   -1.1327    1.6661    0.3363 H   0  0  0  0  0  0  0  0  0  0  0  0
   -1.7723   -0.5405    1.2866 H   0  0  0  0  0  0  0  0  0  0  0  0
   -1.8725   -1.2210   -0.3258 H   0  0  0  0  0  0  0  0  0  0  0  0
    0.0880   -1.9971    0.8166 H   0  0  0  0  0  0  0  0  0  0  0  0
    2.1265   -1.1036    0.3226 H   0  0  0  0  0  0  0  0  0  0  0  0
    2.3677    1.3341    0.2280 H   0  0  0  0  0  0  0  0  0  0  0  0
    0.8213    1.5183   -0.6028 H   0  0  0  0  0  0  0  0  0  0  0  0
    2.1680    0.6992   -1.3973 H   0  0  0  0  0  0  0  0  0  0  0  0
  1  2  1  0  0  0  0
  2  3  1  0  0  0  0
  3  4  2  0  0  0  0
  4  5  1  0  0  0  0
  1  6  1  0  0  0  0
  1  7  1  0  0  0  0
  1  8  1  0  0  0  0
  2  9  1  0  0  0  0
  2 10  1  0  0  0  0
  3 11  1  0  0  0  0
  4 12  1  0  0  0  0
  5 13  1  0  0  0  0
  5 14  1  0  0  0  0
  5 15  1  0  0  0  0
M  END
