 xtb: 6.7.1 (edcfbbe)
          04032521233D

 19 19  0     0  0            999 V2000
   -2.6042   -0.9343   -0.0002 C   0  0  0  0  0  0  0  0  0  0  0  0
   -1.1487   -0.5776    0.0001 C   0  0  0  0  0  0  0  0  0  0  0  0
   -0.1814   -1.5706    0.0001 C   0  0  0  0  0  0  0  0  0  0  0  0
    1.1691   -1.2693    0.0001 C   0  0  0  0  0  0  0  0  0  0  0  0
    1.5721    0.0579    0.0000 C   0  0  0  0  0  0  0  0  0  0  0  0
    0.6107    1.0621    0.0001 C   0  0  0  0  0  0  0  0  0  0  0  0
   -0.7410    0.7613    0.0002 C   0  0  0  0  0  0  0  0  0  0  0  0
   -1.7531    1.8652    0.0000 C   0  0  0  0  0  0  0  0  0  0  0  0
    2.8867    0.4276   -0.0002 O   0  0  0  0  0  0  0  0  0  0  0  0
   -3.0998   -0.5231    0.8781 H   0  0  0  0  0  0  0  0  0  0  0  0
   -3.0983   -0.5263   -0.8809 H   0  0  0  0  0  0  0  0  0  0  0  0
   -2.7337   -2.0131    0.0016 H   0  0  0  0  0  0  0  0  0  0  0  0
   -0.4860   -2.6074    0.0001 H   0  0  0  0  0  0  0  0  0  0  0  0
    1.9019   -2.0634   -0.0000 H   0  0  0  0  0  0  0  0  0  0  0  0
    0.9464    2.0884    0.0000 H   0  0  0  0  0  0  0  0  0  0  0  0
   -2.3906    1.7970   -0.8802 H   0  0  0  0  0  0  0  0  0  0  0  0
   -2.3928    1.7954    0.8785 H   0  0  0  0  0  0  0  0  0  0  0  0
   -1.2633    2.8348    0.0015 H   0  0  0  0  0  0  0  0  0  0  0  0
    3.4552   -0.3565   -0.0002 H   0  0  0  0  0  0  0  0  0  0  0  0
  1  2  1  0  0  0  0
  2  3  4  0  0  0  0
  3  4  4  0  0  0  0
  4  5  4  0  0  0  0
  5  6  4  0  0  0  0
  2  7  4  0  0  0  0
  6  7  4  0  0  0  0
  7  8  1  0  0  0  0
  5  9  1  0  0  0  0
  1 10  1  0  0  0  0
  1 11  1  0  0  0  0
  1 12  1  0  0  0  0
  3 13  1  0  0  0  0
  4 14  1  0  0  0  0
  6 15  1  0  0  0  0
  8 16  1  0  0  0  0
  8 17  1  0  0  0  0
  8 18  1  0  0  0  0
  9 19  1  0  0  0  0
M  END
