 xtb: 6.7.1 (edcfbbe)
          04052503223D

 18 18  0     0  0            999 V2000
   -3.0805    0.0087    0.7441 C   0  0  0  0  0  0  0  0  0  0  0  0
   -2.3352   -0.1802   -0.4460 O   0  0  0  0  0  0  0  0  0  0  0  0
   -0.9537   -0.0875   -0.2611 C   0  0  0  0  0  0  0  0  0  0  0  0
   -0.2065   -1.2303   -0.0078 C   0  0  0  0  0  0  0  0  0  0  0  0
    1.1628   -1.1473    0.1356 C   0  0  0  0  0  0  0  0  0  0  0  0
    1.8202    0.0830    0.0374 C   0  0  0  0  0  0  0  0  0  0  0  0
    1.0549    1.2255   -0.2170 C   0  0  0  0  0  0  0  0  0  0  0  0
   -0.3143    1.1414   -0.3607 C   0  0  0  0  0  0  0  0  0  0  0  0
    3.1721    0.1765    0.2524 N   0  0  0  0  0  0  0  0  0  0  0  0
   -4.1267   -0.0803    0.4602 H   0  0  0  0  0  0  0  0  0  0  0  0
   -2.8937    0.9991    1.1715 H   0  0  0  0  0  0  0  0  0  0  0  0
   -2.8304   -0.7549    1.4878 H   0  0  0  0  0  0  0  0  0  0  0  0
   -0.7092   -2.1835    0.0625 H   0  0  0  0  0  0  0  0  0  0  0  0
    1.7368   -2.0415    0.3277 H   0  0  0  0  0  0  0  0  0  0  0  0
    1.5446    2.1842   -0.3008 H   0  0  0  0  0  0  0  0  0  0  0  0
   -0.8997    2.0260   -0.5639 H   0  0  0  0  0  0  0  0  0  0  0  0
    3.6265    1.0091   -0.0823 H   0  0  0  0  0  0  0  0  0  0  0  0
    3.7027   -0.6738    0.1687 H   0  0  0  0  0  0  0  0  0  0  0  0
  1  2  1  0  0  0  0
  2  3  1  0  0  0  0
  3  4  4  0  0  0  0
  4  5  4  0  0  0  0
  5  6  4  0  0  0  0
  6  7  4  0  0  0  0
  3  8  4  0  0  0  0
  7  8  4  0  0  0  0
  6  9  1  0  0  0  0
  1 10  1  0  0  0  0
  1 11  1  0  0  0  0
  1 12  1  0  0  0  0
  4 13  1  0  0  0  0
  5 14  1  0  0  0  0
  7 15  1  0  0  0  0
  8 16  1  0  0  0  0
  9 17  1  0  0  0  0
  9 18  1  0  0  0  0
M  END
