 xtb: 6.7.1 (edcfbbe)
          04032521103D

 11 10  0     0  0            999 V2000
   -2.8491    0.2529    0.3589 C   0  0  0  0  0  0  0  0  0  0  0  0
   -2.1903   -0.0630   -0.9768 C   0  0  0  0  0  0  0  0  0  0  0  0
   -0.9572   -0.9307   -0.8395 C   0  0  0  0  0  0  0  0  0  0  0  0
    0.6914    0.0843    0.1623 I   0  0  0  0  0  0  0  0  0  0  0  0
   -2.1731    0.8190    0.9965 H   0  0  0  0  0  0  0  0  0  0  0  0
   -3.7467    0.8454    0.2051 H   0  0  0  0  0  0  0  0  0  0  0  0
   -3.1241   -0.6635    0.8768 H   0  0  0  0  0  0  0  0  0  0  0  0
   -1.9382    0.8651   -1.4940 H   0  0  0  0  0  0  0  0  0  0  0  0
   -2.8953   -0.6132   -1.6065 H   0  0  0  0  0  0  0  0  0  0  0  0
   -0.5615   -1.2209   -1.8089 H   0  0  0  0  0  0  0  0  0  0  0  0
   -1.1556   -1.8161   -0.2414 H   0  0  0  0  0  0  0  0  0  0  0  0
  1  2  1  0  0  0  0
  2  3  1  0  0  0  0
  3  4  1  0  0  0  0
  1  5  1  0  0  0  0
  1  6  1  0  0  0  0
  1  7  1  0  0  0  0
  2  8  1  0  0  0  0
  2  9  1  0  0  0  0
  3 10  1  0  0  0  0
  3 11  1  0  0  0  0
M  END
