 xtb: 6.7.1 (edcfbbe)
          04032521433D

 13 13  0     0  0            999 V2000
    0.8298   -1.8409   -0.0001 C   0  0  0  0  0  0  0  0  0  0  0  0
    1.8594   -0.9180   -0.0000 C   0  0  0  0  0  0  0  0  0  0  0  0
    1.5724    0.4437    0.0000 C   0  0  0  0  0  0  0  0  0  0  0  0
    0.2450    0.8686    0.0000 C   0  0  0  0  0  0  0  0  0  0  0  0
   -0.7634   -0.0741    0.0001 C   0  0  0  0  0  0  0  0  0  0  0  0
   -0.4929   -1.4318    0.0001 C   0  0  0  0  0  0  0  0  0  0  0  0
   -2.4183    0.4673   -0.0000 Cl  0  0  0  0  0  0  0  0  0  0  0  0
    2.5349    1.3940    0.0000 O   0  0  0  0  0  0  0  0  0  0  0  0
    1.0581   -2.8946   -0.0001 H   0  0  0  0  0  0  0  0  0  0  0  0
    2.8849   -1.2545    0.0004 H   0  0  0  0  0  0  0  0  0  0  0  0
    0.0296    1.9243   -0.0001 H   0  0  0  0  0  0  0  0  0  0  0  0
   -1.2977   -2.1476    0.0004 H   0  0  0  0  0  0  0  0  0  0  0  0
    3.4178    0.9921   -0.0001 H   0  0  0  0  0  0  0  0  0  0  0  0
  1  2  4  0  0  0  0
  2  3  4  0  0  0  0
  3  4  4  0  0  0  0
  4  5  4  0  0  0  0
  1  6  4  0  0  0  0
  5  6  4  0  0  0  0
  5  7  1  0  0  0  0
  3  8  1  0  0  0  0
  1  9  1  0  0  0  0
  2 10  1  0  0  0  0
  4 11  1  0  0  0  0
  6 12  1  0  0  0  0
  8 13  1  0  0  0  0
M  END
