 xtb: 6.7.1 (edcfbbe)
          04032521103D

 11 10  0     0  0            999 V2000
   -3.6538   -0.0268    0.0000 C   0  0  0  0  0  0  0  0  0  0  0  0
   -2.2232    0.5038   -0.0000 C   0  0  0  0  0  0  0  0  0  0  0  0
   -1.2448   -0.6522   -0.0000 C   0  0  0  0  0  0  0  0  0  0  0  0
    0.8238    0.0226    0.0000 I   0  0  0  0  0  0  0  0  0  0  0  0
   -4.3562    0.8016   -0.0000 H   0  0  0  0  0  0  0  0  0  0  0  0
   -3.8369   -0.6351   -0.8825 H   0  0  0  0  0  0  0  0  0  0  0  0
   -3.8368   -0.6349    0.8827 H   0  0  0  0  0  0  0  0  0  0  0  0
   -2.0626    1.1264    0.8825 H   0  0  0  0  0  0  0  0  0  0  0  0
   -2.0628    1.1261   -0.8828 H   0  0  0  0  0  0  0  0  0  0  0  0
   -1.3525   -1.2687   -0.8886 H   0  0  0  0  0  0  0  0  0  0  0  0
   -1.3524   -1.2684    0.8888 H   0  0  0  0  0  0  0  0  0  0  0  0
  1  2  1  0  0  0  0
  2  3  1  0  0  0  0
  3  4  1  0  0  0  0
  1  5  1  0  0  0  0
  1  6  1  0  0  0  0
  1  7  1  0  0  0  0
  2  8  1  0  0  0  0
  2  9  1  0  0  0  0
  3 10  1  0  0  0  0
  3 11  1  0  0  0  0
M  END
