 xtb: 6.7.1 (edcfbbe)
          04062505073D

 29 29  0     0  0            999 V2000
   -3.4643   -0.0100   -0.5980 C   0  0  0  0  0  0  0  0  0  0  0  0
   -1.9733   -0.3336   -0.5911 C   0  0  0  0  0  0  0  0  0  0  0  0
   -1.7468   -0.9259   -1.4832 H   0  0  0  0  0  0  0  0  0  0  0  0
   -1.5883   -1.1636    0.6327 C   0  0  0  0  0  0  0  0  0  0  0  0
   -0.1082   -1.5242    0.5600 C   0  0  0  0  0  0  0  0  0  0  0  0
    0.7816   -0.2658    0.5693 C   0  0  0  0  0  0  0  0  0  0  0  0
    1.3130   -0.1813    1.5233 H   0  0  0  0  0  0  0  0  0  0  0  0
   -0.0578    0.9829    0.4354 C   0  0  0  0  0  0  0  0  0  0  0  0
    0.1395    1.9636    1.1302 O   0  0  0  0  0  0  0  0  0  0  0  0
   -1.1363    0.9622   -0.6117 C   0  0  0  0  0  0  0  0  0  0  0  0
    1.8466   -0.3020   -0.5533 C   0  0  0  0  0  0  0  0  0  0  0  0
    2.6049    1.0209   -0.6463 C   0  0  0  0  0  0  0  0  0  0  0  0
    2.8355   -1.4387   -0.3023 C   0  0  0  0  0  0  0  0  0  0  0  0
   -3.7338    0.5583    0.2897 H   0  0  0  0  0  0  0  0  0  0  0  0
   -3.7244    0.5750   -1.4766 H   0  0  0  0  0  0  0  0  0  0  0  0
   -4.0492   -0.9265   -0.6092 H   0  0  0  0  0  0  0  0  0  0  0  0
   -1.7912   -0.5919    1.5423 H   0  0  0  0  0  0  0  0  0  0  0  0
   -2.1866   -2.0753    0.6643 H   0  0  0  0  0  0  0  0  0  0  0  0
    0.1592   -2.1653    1.3998 H   0  0  0  0  0  0  0  0  0  0  0  0
    0.0580   -2.0897   -0.3584 H   0  0  0  0  0  0  0  0  0  0  0  0
   -1.7687    1.8383   -0.4554 H   0  0  0  0  0  0  0  0  0  0  0  0
   -0.6436    1.0815   -1.5787 H   0  0  0  0  0  0  0  0  0  0  0  0
    1.3336   -0.4808   -1.5042 H   0  0  0  0  0  0  0  0  0  0  0  0
    3.3852    0.9531   -1.4004 H   0  0  0  0  0  0  0  0  0  0  0  0
    3.0676    1.2601    0.3090 H   0  0  0  0  0  0  0  0  0  0  0  0
    1.9436    1.8436   -0.9099 H   0  0  0  0  0  0  0  0  0  0  0  0
    3.5576   -1.4872   -1.1136 H   0  0  0  0  0  0  0  0  0  0  0  0
    2.3304   -2.3976   -0.2358 H   0  0  0  0  0  0  0  0  0  0  0  0
    3.3750   -1.2683    0.6264 H   0  0  0  0  0  0  0  0  0  0  0  0
  1  2  1  0  0  0  0
  2  3  1  0  0  0  0
  2  4  1  0  0  0  0
  4  5  1  0  0  0  0
  5  6  1  0  0  0  0
  6  7  1  0  0  0  0
  6  8  1  0  0  0  0
  8  9  2  0  0  0  0
  2 10  1  0  0  0  0
  8 10  1  0  0  0  0
  6 11  1  0  0  0  0
 11 12  1  0  0  0  0
 11 13  1  0  0  0  0
  1 14  1  0  0  0  0
  1 15  1  0  0  0  0
  1 16  1  0  0  0  0
  4 17  1  0  0  0  0
  4 18  1  0  0  0  0
  5 19  1  0  0  0  0
  5 20  1  0  0  0  0
 10 21  1  0  0  0  0
 10 22  1  0  0  0  0
 11 23  1  0  0  0  0
 12 24  1  0  0  0  0
 12 25  1  0  0  0  0
 12 26  1  0  0  0  0
 13 27  1  0  0  0  0
 13 28  1  0  0  0  0
 13 29  1  0  0  0  0
M  END
