 xtb: 6.7.1 (edcfbbe)
          04032521083D

 10  9  0     0  0            999 V2000
   -1.2229   -0.2524    0.0161 C   0  0  0  0  0  0  0  0  0  0  0  0
    0.0042    0.5370   -0.0845 N   0  0  0  0  0  0  0  0  0  0  0  0
    1.2186   -0.2495    0.0157 C   0  0  0  0  0  0  0  0  0  0  0  0
   -1.8209   -0.0976   -0.8845 H   0  0  0  0  0  0  0  0  0  0  0  0
   -1.8272    0.0294    0.8794 H   0  0  0  0  0  0  0  0  0  0  0  0
   -0.9973   -1.3166    0.0949 H   0  0  0  0  0  0  0  0  0  0  0  0
    0.0130    1.2545    0.6311 H   0  0  0  0  0  0  0  0  0  0  0  0
    2.0739    0.4194   -0.0547 H   0  0  0  0  0  0  0  0  0  0  0  0
    1.2540   -0.9463   -0.8218 H   0  0  0  0  0  0  0  0  0  0  0  0
    1.2984   -0.8254    0.9507 H   0  0  0  0  0  0  0  0  0  0  0  0
  1  2  1  0  0  0  0
  2  3  1  0  0  0  0
  1  4  1  0  0  0  0
  1  5  1  0  0  0  0
  1  6  1  0  0  0  0
  2  7  1  0  0  0  0
  3  8  1  0  0  0  0
  3  9  1  0  0  0  0
  3 10  1  0  0  0  0
M  END
