 xtb: 6.7.1 (edcfbbe)
          04062505073D

 29 29  0     0  0            999 V2000
   -2.9707    0.0400    0.5666 C   0  0  0  0  0  0  0  0  0  0  0  0
   -2.0600   -0.5609   -0.5023 C   0  0  0  0  0  0  0  0  0  0  0  0
   -2.6926   -1.0450   -1.2542 H   0  0  0  0  0  0  0  0  0  0  0  0
   -1.0936   -1.6020    0.0588 C   0  0  0  0  0  0  0  0  0  0  0  0
   -0.1405   -1.0002    1.0869 C   0  0  0  0  0  0  0  0  0  0  0  0
    0.5811    0.2750    0.6308 C   0  0  0  0  0  0  0  0  0  0  0  0
    0.7761    0.8940    1.5158 H   0  0  0  0  0  0  0  0  0  0  0  0
   -0.2210    1.1632   -0.2937 C   0  0  0  0  0  0  0  0  0  0  0  0
    0.0056    2.3613   -0.3366 O   0  0  0  0  0  0  0  0  0  0  0  0
   -1.2507    0.5387   -1.1917 C   0  0  0  0  0  0  0  0  0  0  0  0
    1.9857    0.0560   -0.0038 C   0  0  0  0  0  0  0  0  0  0  0  0
    3.0026   -0.3145    1.0755 C   0  0  0  0  0  0  0  0  0  0  0  0
    2.0135   -0.9849   -1.1179 C   0  0  0  0  0  0  0  0  0  0  0  0
   -3.4739   -0.7455    1.1248 H   0  0  0  0  0  0  0  0  0  0  0  0
   -2.4033    0.6563    1.2601 H   0  0  0  0  0  0  0  0  0  0  0  0
   -3.7269    0.6701    0.1039 H   0  0  0  0  0  0  0  0  0  0  0  0
   -1.6582   -2.4055    0.5356 H   0  0  0  0  0  0  0  0  0  0  0  0
   -0.5339   -2.0378   -0.7686 H   0  0  0  0  0  0  0  0  0  0  0  0
   -0.7111   -0.7621    1.9861 H   0  0  0  0  0  0  0  0  0  0  0  0
    0.5995   -1.7482    1.3720 H   0  0  0  0  0  0  0  0  0  0  0  0
   -1.8976    1.3304   -1.5758 H   0  0  0  0  0  0  0  0  0  0  0  0
   -0.7103    0.1128   -2.0414 H   0  0  0  0  0  0  0  0  0  0  0  0
    2.2826    1.0244   -0.4264 H   0  0  0  0  0  0  0  0  0  0  0  0
    3.0443    0.4502    1.8471 H   0  0  0  0  0  0  0  0  0  0  0  0
    3.9915   -0.4074    0.6335 H   0  0  0  0  0  0  0  0  0  0  0  0
    2.7489   -1.2629    1.5417 H   0  0  0  0  0  0  0  0  0  0  0  0
    1.7745   -1.9720   -0.7328 H   0  0  0  0  0  0  0  0  0  0  0  0
    3.0124   -1.0238   -1.5467 H   0  0  0  0  0  0  0  0  0  0  0  0
    1.3197   -0.7335   -1.9150 H   0  0  0  0  0  0  0  0  0  0  0  0
  1  2  1  0  0  0  0
  2  3  1  0  0  0  0
  2  4  1  0  0  0  0
  4  5  1  0  0  0  0
  5  6  1  0  0  0  0
  6  7  1  0  0  0  0
  6  8  1  0  0  0  0
  8  9  2  0  0  0  0
  2 10  1  0  0  0  0
  8 10  1  0  0  0  0
  6 11  1  0  0  0  0
 11 12  1  0  0  0  0
 11 13  1  0  0  0  0
  1 14  1  0  0  0  0
  1 15  1  0  0  0  0
  1 16  1  0  0  0  0
  4 17  1  0  0  0  0
  4 18  1  0  0  0  0
  5 19  1  0  0  0  0
  5 20  1  0  0  0  0
 10 21  1  0  0  0  0
 10 22  1  0  0  0  0
 11 23  1  0  0  0  0
 12 24  1  0  0  0  0
 12 25  1  0  0  0  0
 12 26  1  0  0  0  0
 13 27  1  0  0  0  0
 13 28  1  0  0  0  0
 13 29  1  0  0  0  0
M  END
