 xtb: 6.7.1 (edcfbbe)
          04062518003D

 24 24  0     0  0            999 V2000
   -2.3578   -1.0226    0.3594 C   0  0  0  0  0  0  0  0  0  0  0  0
   -1.0864   -0.2678    0.8061 C   0  0  0  0  0  0  0  0  0  0  0  0
   -1.3049    0.1656    1.7921 H   0  0  0  0  0  0  0  0  0  0  0  0
   -0.6855    0.8649   -0.1468 C   0  0  0  0  0  0  0  0  0  0  0  0
   -0.6957    0.5234   -1.1873 H   0  0  0  0  0  0  0  0  0  0  0  0
    0.7473    1.3022    0.1955 C   0  0  0  0  0  0  0  0  0  0  0  0
    0.8084    1.5208    1.2758 H   0  0  0  0  0  0  0  0  0  0  0  0
    1.7163    0.1503   -0.1147 C   0  0  0  0  0  0  0  0  0  0  0  0
    2.0000    0.2181   -1.1746 H   0  0  0  0  0  0  0  0  0  0  0  0
    1.0088   -1.2065    0.0745 C   0  0  0  0  0  0  0  0  0  0  0  0
    1.7401   -1.9163    0.4924 H   0  0  0  0  0  0  0  0  0  0  0  0
   -0.0046   -1.1729    1.0393 O   0  0  0  0  0  0  0  0  0  0  0  0
    0.5525   -1.6173   -1.1749 O   0  0  0  0  0  0  0  0  0  0  0  0
    2.8500    0.1715    0.7112 O   0  0  0  0  0  0  0  0  0  0  0  0
    1.1285    2.4378   -0.5414 O   0  0  0  0  0  0  0  0  0  0  0  0
   -1.5760    1.9488   -0.0936 O   0  0  0  0  0  0  0  0  0  0  0  0
   -2.2355   -1.7091   -0.8604 O   0  0  0  0  0  0  0  0  0  0  0  0
   -3.1844   -0.3048    0.3274 H   0  0  0  0  0  0  0  0  0  0  0  0
   -2.5719   -1.7879    1.1085 H   0  0  0  0  0  0  0  0  0  0  0  0
   -0.0750   -2.3542   -1.0679 H   0  0  0  0  0  0  0  0  0  0  0  0
    3.3449    0.9877    0.5438 H   0  0  0  0  0  0  0  0  0  0  0  0
    0.3336    2.9664   -0.7227 H   0  0  0  0  0  0  0  0  0  0  0  0
   -1.6561    2.2675    0.8183 H   0  0  0  0  0  0  0  0  0  0  0  0
   -2.2561   -1.0806   -1.5948 H   0  0  0  0  0  0  0  0  0  0  0  0
  1  2  1  0  0  0  0
  2  3  1  0  0  0  0
  2  4  1  0  0  0  0
  4  5  1  0  0  0  0
  4  6  1  0  0  0  0
  6  7  1  0  0  0  0
  6  8  1  0  0  0  0
  8  9  1  0  0  0  0
  8 10  1  0  0  0  0
 10 11  1  0  0  0  0
  2 12  1  0  0  0  0
 10 12  1  0  0  0  0
 10 13  1  0  0  0  0
  8 14  1  0  0  0  0
  6 15  1  0  0  0  0
  4 16  1  0  0  0  0
  1 17  1  0  0  0  0
  1 18  1  0  0  0  0
  1 19  1  0  0  0  0
 13 20  1  0  0  0  0
 14 21  1  0  0  0  0
 15 22  1  0  0  0  0
 16 23  1  0  0  0  0
 17 24  1  0  0  0  0
M  END
