 xtb: 6.7.1 (edcfbbe)
          04042513193D

 12 11  0     0  0            999 V2000
   -2.3645    0.8505   -0.2452 C   0  0  0  0  0  0  0  0  0  0  0  0
   -1.0996    0.6328    0.3928 O   0  0  0  0  0  0  0  0  0  0  0  0
   -0.4343   -0.4751    0.1410 C   0  0  0  0  0  0  0  0  0  0  0  0
   -0.8045   -1.3679   -0.5842 O   0  0  0  0  0  0  0  0  0  0  0  0
    0.8968   -0.4809    0.8864 C   0  0  0  0  0  0  0  0  0  0  0  0
    1.8705    0.1690    0.0533 C   0  0  0  0  0  0  0  0  0  0  0  0
    2.6332    0.6917   -0.6207 N   0  0  0  0  0  0  0  0  0  0  0  0
   -2.2360    1.6253   -0.9994 H   0  0  0  0  0  0  0  0  0  0  0  0
   -3.0533    1.1834    0.5273 H   0  0  0  0  0  0  0  0  0  0  0  0
   -2.7122   -0.0729   -0.7085 H   0  0  0  0  0  0  0  0  0  0  0  0
    1.2105   -1.5103    1.0679 H   0  0  0  0  0  0  0  0  0  0  0  0
    0.8003    0.0749    1.8206 H   0  0  0  0  0  0  0  0  0  0  0  0
  1  2  1  0  0  0  0
  2  3  1  0  0  0  0
  3  4  2  0  0  0  0
  3  5  1  0  0  0  0
  5  6  1  0  0  0  0
  6  7  3  0  0  0  0
  1  8  1  0  0  0  0
  1  9  1  0  0  0  0
  1 10  1  0  0  0  0
  5 11  1  0  0  0  0
  5 12  1  0  0  0  0
M  END
