 xtb: 6.7.1 (edcfbbe)
          04032521413D

 15 15  0     0  0            999 V2000
   -0.5875   -1.1351   -0.1381 C   0  0  0  0  0  0  0  0  0  0  0  0
   -1.2722    0.2380   -0.0071 C   0  0  0  0  0  0  0  0  0  0  0  0
   -0.1391    1.2673    0.1512 C   0  0  0  0  0  0  0  0  0  0  0  0
    1.1328    0.5226   -0.2539 C   0  0  0  0  0  0  0  0  0  0  0  0
    0.8724   -0.8937    0.2480 C   0  0  0  0  0  0  0  0  0  0  0  0
   -0.6380   -1.4806   -1.1714 H   0  0  0  0  0  0  0  0  0  0  0  0
   -1.0582   -1.8896    0.4904 H   0  0  0  0  0  0  0  0  0  0  0  0
   -1.8716    0.4526   -0.8915 H   0  0  0  0  0  0  0  0  0  0  0  0
   -1.9379    0.2640    0.8549 H   0  0  0  0  0  0  0  0  0  0  0  0
   -0.3055    2.1572   -0.4539 H   0  0  0  0  0  0  0  0  0  0  0  0
   -0.0610    1.5793    1.1936 H   0  0  0  0  0  0  0  0  0  0  0  0
    1.2350    0.5157   -1.3403 H   0  0  0  0  0  0  0  0  0  0  0  0
    2.0300    0.9659    0.1752 H   0  0  0  0  0  0  0  0  0  0  0  0
    1.5457   -1.6286   -0.1908 H   0  0  0  0  0  0  0  0  0  0  0  0
    0.9851   -0.9254    1.3328 H   0  0  0  0  0  0  0  0  0  0  0  0
  1  2  1  0  0  0  0
  2  3  1  0  0  0  0
  3  4  1  0  0  0  0
  1  5  1  0  0  0  0
  4  5  1  0  0  0  0
  1  6  1  0  0  0  0
  1  7  1  0  0  0  0
  2  8  1  0  0  0  0
  2  9  1  0  0  0  0
  3 10  1  0  0  0  0
  3 11  1  0  0  0  0
  4 12  1  0  0  0  0
  4 13  1  0  0  0  0
  5 14  1  0  0  0  0
  5 15  1  0  0  0  0
M  END
