 xtb: 6.7.1 (edcfbbe)
          04062518003D

 24 24  0     0  0            999 V2000
   -1.7802   -1.0154   -0.6812 C   0  0  0  0  0  0  0  0  0  0  0  0
   -1.0371   -0.4711    0.5534 C   0  0  0  0  0  0  0  0  0  0  0  0
   -1.6902   -0.5521    1.4317 H   0  0  0  0  0  0  0  0  0  0  0  0
   -0.6960    1.0164    0.3839 C   0  0  0  0  0  0  0  0  0  0  0  0
   -1.5447    1.4758   -0.1391 H   0  0  0  0  0  0  0  0  0  0  0  0
    0.5675    1.2352   -0.4725 C   0  0  0  0  0  0  0  0  0  0  0  0
    0.8975    2.2791   -0.3253 H   0  0  0  0  0  0  0  0  0  0  0  0
    1.7059    0.3357    0.0436 C   0  0  0  0  0  0  0  0  0  0  0  0
    2.5496    0.3614   -0.6548 H   0  0  0  0  0  0  0  0  0  0  0  0
    1.2539   -1.1321    0.1551 C   0  0  0  0  0  0  0  0  0  0  0  0
    2.0063   -1.6699    0.7543 H   0  0  0  0  0  0  0  0  0  0  0  0
    0.0771   -1.2807    0.9089 O   0  0  0  0  0  0  0  0  0  0  0  0
    1.1587   -1.6614   -1.1288 O   0  0  0  0  0  0  0  0  0  0  0  0
    2.1963    0.8050    1.2719 O   0  0  0  0  0  0  0  0  0  0  0  0
    0.2360    1.0174   -1.8169 O   0  0  0  0  0  0  0  0  0  0  0  0
   -0.5243    1.5684    1.6731 O   0  0  0  0  0  0  0  0  0  0  0  0
   -3.0533   -0.4371   -0.8236 O   0  0  0  0  0  0  0  0  0  0  0  0
   -1.8484   -2.1058   -0.5894 H   0  0  0  0  0  0  0  0  0  0  0  0
   -1.2262   -0.7628   -1.5867 H   0  0  0  0  0  0  0  0  0  0  0  0
    1.0140   -2.6182   -1.0867 H   0  0  0  0  0  0  0  0  0  0  0  0
    1.4514    0.8749    1.8955 H   0  0  0  0  0  0  0  0  0  0  0  0
    1.0256    1.1009   -2.3698 H   0  0  0  0  0  0  0  0  0  0  0  0
   -0.6119    2.5313    1.6352 H   0  0  0  0  0  0  0  0  0  0  0  0
   -3.6245   -0.7271   -0.0976 H   0  0  0  0  0  0  0  0  0  0  0  0
  1  2  1  0  0  0  0
  2  3  1  0  0  0  0
  2  4  1  0  0  0  0
  4  5  1  0  0  0  0
  4  6  1  0  0  0  0
  6  7  1  0  0  0  0
  6  8  1  0  0  0  0
  8  9  1  0  0  0  0
  8 10  1  0  0  0  0
 10 11  1  0  0  0  0
  2 12  1  0  0  0  0
 10 12  1  0  0  0  0
 10 13  1  0  0  0  0
  8 14  1  0  0  0  0
  6 15  1  0  0  0  0
  4 16  1  0  0  0  0
  1 17  1  0  0  0  0
  1 18  1  0  0  0  0
  1 19  1  0  0  0  0
 13 20  1  0  0  0  0
 14 21  1  0  0  0  0
 15 22  1  0  0  0  0
 16 23  1  0  0  0  0
 17 24  1  0  0  0  0
M  END
