 xtb: 6.7.1 (edcfbbe)
          04042518403D

 14 15  0     0  0            999 V2000
   -1.2724    0.0001    0.0000 C   0  0  0  0  0  0  0  0  0  0  0  0
   -0.5764   -1.2163   -0.0029 C   0  0  0  0  0  0  0  0  0  0  0  0
    0.8203   -1.2107   -0.0143 C   0  0  0  0  0  0  0  0  0  0  0  0
    1.5176   -0.0002   -0.0000 C   0  0  0  0  0  0  0  0  0  0  0  0
    0.8206    1.2105    0.0143 C   0  0  0  0  0  0  0  0  0  0  0  0
   -0.5761    1.2165    0.0030 C   0  0  0  0  0  0  0  0  0  0  0  0
   -1.3989    2.7182    0.0493 Cl  0  0  0  0  0  0  0  0  0  0  0  0
    1.6814    2.6857    0.0424 Cl  0  0  0  0  0  0  0  0  0  0  0  0
    3.2202   -0.0004   -0.0000 Cl  0  0  0  0  0  0  0  0  0  0  0  0
    1.6808   -2.6860   -0.0424 Cl  0  0  0  0  0  0  0  0  0  0  0  0
   -1.3996   -2.7178   -0.0493 Cl  0  0  0  0  0  0  0  0  0  0  0  0
   -2.7172    0.0003    0.0000 N   0  0  0  0  0  0  0  0  0  0  0  0
   -3.2784   -0.8214    0.6873 O   0  0  0  0  0  0  0  0  0  0  0  0
   -3.2782    0.8220   -0.6874 O   0  0  0  0  0  0  0  0  0  0  0  0
  1  2  4  0  0  0  0
  2  3  4  0  0  0  0
  3  4  4  0  0  0  0
  4  5  4  0  0  0  0
  1  6  4  0  0  0  0
  5  6  4  0  0  0  0
  6  7  1  0  0  0  0
  5  8  1  0  0  0  0
  4  9  1  0  0  0  0
  3 10  1  0  0  0  0
  2 11  1  0  0  0  0
  1 12  1  0  0  0  0
 12 13  4  0  0  0  0
 12 14  4  0  0  0  0
 13 14  1  0  0  0  0
M  END
