 xtb: 6.7.1 (edcfbbe)
          04062518003D

 24 24  0     0  0            999 V2000
   -1.8091   -1.0484   -0.6964 C   0  0  0  0  0  0  0  0  0  0  0  0
   -1.0463   -0.5004    0.5199 C   0  0  0  0  0  0  0  0  0  0  0  0
   -1.7153   -0.6084    1.3830 H   0  0  0  0  0  0  0  0  0  0  0  0
   -0.7140    0.9919    0.3530 C   0  0  0  0  0  0  0  0  0  0  0  0
   -1.5484    1.4590   -0.1869 H   0  0  0  0  0  0  0  0  0  0  0  0
    0.5785    1.2378   -0.4597 C   0  0  0  0  0  0  0  0  0  0  0  0
    0.8434    2.2937   -0.3161 H   0  0  0  0  0  0  0  0  0  0  0  0
    1.7129    0.3692    0.0996 C   0  0  0  0  0  0  0  0  0  0  0  0
    2.5773    0.4257   -0.5720 H   0  0  0  0  0  0  0  0  0  0  0  0
    1.2619   -1.1071    0.1464 C   0  0  0  0  0  0  0  0  0  0  0  0
    2.0093   -1.6742    0.7193 H   0  0  0  0  0  0  0  0  0  0  0  0
    0.0771   -1.2998    0.8738 O   0  0  0  0  0  0  0  0  0  0  0  0
    1.1646   -1.5696   -1.1701 O   0  0  0  0  0  0  0  0  0  0  0  0
    2.1566    0.8008    1.3560 O   0  0  0  0  0  0  0  0  0  0  0  0
    0.3951    1.0500   -1.8392 O   0  0  0  0  0  0  0  0  0  0  0  0
   -0.5129    1.6167    1.6040 O   0  0  0  0  0  0  0  0  0  0  0  0
   -3.0913   -0.4598   -0.6769 O   0  0  0  0  0  0  0  0  0  0  0  0
   -1.8789   -2.1386   -0.5898 H   0  0  0  0  0  0  0  0  0  0  0  0
   -1.2836   -0.8033   -1.6239 H   0  0  0  0  0  0  0  0  0  0  0  0
    1.0921   -2.5357   -1.1868 H   0  0  0  0  0  0  0  0  0  0  0  0
    1.3817    1.0281    1.9000 H   0  0  0  0  0  0  0  0  0  0  0  0
    0.6426    0.1385   -2.0671 H   0  0  0  0  0  0  0  0  0  0  0  0
   -1.3454    1.6445    2.0965 H   0  0  0  0  0  0  0  0  0  0  0  0
   -3.5859   -0.7477   -1.4568 H   0  0  0  0  0  0  0  0  0  0  0  0
  1  2  1  0  0  0  0
  2  3  1  0  0  0  0
  2  4  1  0  0  0  0
  4  5  1  0  0  0  0
  4  6  1  0  0  0  0
  6  7  1  0  0  0  0
  6  8  1  0  0  0  0
  8  9  1  0  0  0  0
  8 10  1  0  0  0  0
 10 11  1  0  0  0  0
  2 12  1  0  0  0  0
 10 12  1  0  0  0  0
 10 13  1  0  0  0  0
  8 14  1  0  0  0  0
  6 15  1  0  0  0  0
  4 16  1  0  0  0  0
  1 17  1  0  0  0  0
  1 18  1  0  0  0  0
  1 19  1  0  0  0  0
 13 20  1  0  0  0  0
 14 21  1  0  0  0  0
 15 22  1  0  0  0  0
 16 23  1  0  0  0  0
 17 24  1  0  0  0  0
M  END
