 xtb: 6.7.1 (edcfbbe)
          04062501273D

 25 25  0     0  0            999 V2000
   -4.2216   -0.3135   -0.0715 C   0  0  0  0  0  0  0  0  0  0  0  0
   -2.7393   -0.1101   -0.0219 C   0  0  0  0  0  0  0  0  0  0  0  0
   -1.9396   -0.9303    0.7672 C   0  0  0  0  0  0  0  0  0  0  0  0
   -0.5717   -0.7450    0.8281 C   0  0  0  0  0  0  0  0  0  0  0  0
    0.0286    0.2765    0.0981 C   0  0  0  0  0  0  0  0  0  0  0  0
   -0.7670    1.1161   -0.6716 C   0  0  0  0  0  0  0  0  0  0  0  0
   -2.1334    0.9151   -0.7383 C   0  0  0  0  0  0  0  0  0  0  0  0
    1.4916    0.5537    0.2127 C   0  0  0  0  0  0  0  0  0  0  0  0
    1.8832    1.6356    0.6674 O   0  0  0  0  0  0  0  0  0  0  0  0
    2.3402   -0.4069   -0.1794 N   0  0  0  0  0  0  0  0  0  0  0  0
    3.7672   -0.2253   -0.0236 C   0  0  0  0  0  0  0  0  0  0  0  0
    1.9519   -1.6443   -0.8160 C   0  0  0  0  0  0  0  0  0  0  0  0
   -4.4661   -1.3723   -0.0397 H   0  0  0  0  0  0  0  0  0  0  0  0
   -4.6875    0.1648    0.7897 H   0  0  0  0  0  0  0  0  0  0  0  0
   -4.6431    0.1242   -0.9722 H   0  0  0  0  0  0  0  0  0  0  0  0
   -2.3954   -1.7241    1.3403 H   0  0  0  0  0  0  0  0  0  0  0  0
    0.0336   -1.3850    1.4523 H   0  0  0  0  0  0  0  0  0  0  0  0
   -0.3034    1.9239   -1.2192 H   0  0  0  0  0  0  0  0  0  0  0  0
   -2.7370    1.5685   -1.3508 H   0  0  0  0  0  0  0  0  0  0  0  0
    4.1811   -1.0460    0.5629 H   0  0  0  0  0  0  0  0  0  0  0  0
    3.9391    0.7174    0.4919 H   0  0  0  0  0  0  0  0  0  0  0  0
    4.2537   -0.1979   -0.9996 H   0  0  0  0  0  0  0  0  0  0  0  0
    2.5577   -1.7855   -1.7120 H   0  0  0  0  0  0  0  0  0  0  0  0
    0.9033   -1.6164   -1.0968 H   0  0  0  0  0  0  0  0  0  0  0  0
    2.1240   -2.4865   -0.1428 H   0  0  0  0  0  0  0  0  0  0  0  0
  1  2  1  0  0  0  0
  2  3  4  0  0  0  0
  3  4  4  0  0  0  0
  4  5  4  0  0  0  0
  5  6  4  0  0  0  0
  2  7  4  0  0  0  0
  6  7  4  0  0  0  0
  5  8  1  0  0  0  0
  8  9  2  0  0  0  0
  8 10  4  0  0  0  0
 10 11  1  0  0  0  0
 10 12  1  0  0  0  0
  1 13  1  0  0  0  0
  1 14  1  0  0  0  0
  1 15  1  0  0  0  0
  3 16  1  0  0  0  0
  4 17  1  0  0  0  0
  6 18  1  0  0  0  0
  7 19  1  0  0  0  0
 11 20  1  0  0  0  0
 11 21  1  0  0  0  0
 11 22  1  0  0  0  0
 12 23  1  0  0  0  0
 12 24  1  0  0  0  0
 12 25  1  0  0  0  0
M  END
