 xtb: 6.7.1 (edcfbbe)
          04062518003D

 24 24  0     0  0            999 V2000
   -2.4613   -0.5504   -0.0968 C   0  0  0  0  0  0  0  0  0  0  0  0
   -1.0150   -0.2010    0.2620 C   0  0  0  0  0  0  0  0  0  0  0  0
   -0.8880   -0.2419    1.3521 H   0  0  0  0  0  0  0  0  0  0  0  0
   -0.6435    1.2103   -0.2201 C   0  0  0  0  0  0  0  0  0  0  0  0
   -1.0937    1.3587   -1.2131 H   0  0  0  0  0  0  0  0  0  0  0  0
    0.8961    1.3263   -0.3727 C   0  0  0  0  0  0  0  0  0  0  0  0
    1.2016    2.3239   -0.0222 H   0  0  0  0  0  0  0  0  0  0  0  0
    1.6178    0.2697    0.4830 C   0  0  0  0  0  0  0  0  0  0  0  0
    2.6944    0.3243    0.2647 H   0  0  0  0  0  0  0  0  0  0  0  0
    1.1629   -1.1420    0.0494 C   0  0  0  0  0  0  0  0  0  0  0  0
    1.3032   -1.8190    0.9077 H   0  0  0  0  0  0  0  0  0  0  0  0
   -0.1869   -1.1689   -0.3631 O   0  0  0  0  0  0  0  0  0  0  0  0
    1.9338   -1.6454   -0.9791 O   0  0  0  0  0  0  0  0  0  0  0  0
    1.3735    0.4090    1.8562 O   0  0  0  0  0  0  0  0  0  0  0  0
    1.3220    1.1101   -1.6958 O   0  0  0  0  0  0  0  0  0  0  0  0
   -1.1621    2.1256    0.7089 O   0  0  0  0  0  0  0  0  0  0  0  0
   -2.8674   -1.7758    0.4532 O   0  0  0  0  0  0  0  0  0  0  0  0
   -2.5557   -0.5714   -1.1906 H   0  0  0  0  0  0  0  0  0  0  0  0
   -3.1235    0.2118    0.3168 H   0  0  0  0  0  0  0  0  0  0  0  0
    1.8141   -1.0777   -1.7611 H   0  0  0  0  0  0  0  0  0  0  0  0
    1.7648    1.2328    2.1829 H   0  0  0  0  0  0  0  0  0  0  0  0
    1.0121    1.8230   -2.2730 H   0  0  0  0  0  0  0  0  0  0  0  0
   -1.1607    3.0208    0.3388 H   0  0  0  0  0  0  0  0  0  0  0  0
   -2.2437   -2.4567    0.1613 H   0  0  0  0  0  0  0  0  0  0  0  0
  1  2  1  0  0  0  0
  2  3  1  0  0  0  0
  2  4  1  0  0  0  0
  4  5  1  0  0  0  0
  4  6  1  0  0  0  0
  6  7  1  0  0  0  0
  6  8  1  0  0  0  0
  8  9  1  0  0  0  0
  8 10  1  0  0  0  0
 10 11  1  0  0  0  0
  2 12  1  0  0  0  0
 10 12  1  0  0  0  0
 10 13  1  0  0  0  0
  8 14  1  0  0  0  0
  6 15  1  0  0  0  0
  4 16  1  0  0  0  0
  1 17  1  0  0  0  0
  1 18  1  0  0  0  0
  1 19  1  0  0  0  0
 13 20  1  0  0  0  0
 14 21  1  0  0  0  0
 15 22  1  0  0  0  0
 16 23  1  0  0  0  0
 17 24  1  0  0  0  0
M  END
