 xtb: 6.7.1 (edcfbbe)
          04062518003D

 24 24  0     0  0            999 V2000
   -2.3872   -1.1596   -0.3253 C   0  0  0  0  0  0  0  0  0  0  0  0
   -1.0668   -0.6268    0.2408 C   0  0  0  0  0  0  0  0  0  0  0  0
   -1.1089   -0.6332    1.3414 H   0  0  0  0  0  0  0  0  0  0  0  0
   -0.7815    0.8106   -0.2222 C   0  0  0  0  0  0  0  0  0  0  0  0
   -0.8484    0.8476   -1.3228 H   0  0  0  0  0  0  0  0  0  0  0  0
    0.6384    1.2502    0.1787 C   0  0  0  0  0  0  0  0  0  0  0  0
    0.6698    1.3824    1.2711 H   0  0  0  0  0  0  0  0  0  0  0  0
    1.6784    0.1959   -0.2037 C   0  0  0  0  0  0  0  0  0  0  0  0
    1.7805    0.1963   -1.2997 H   0  0  0  0  0  0  0  0  0  0  0  0
    1.2200   -1.2000    0.2719 C   0  0  0  0  0  0  0  0  0  0  0  0
    1.2295   -1.2081    1.3755 H   0  0  0  0  0  0  0  0  0  0  0  0
   -0.0620   -1.5102   -0.2148 O   0  0  0  0  0  0  0  0  0  0  0  0
    2.0923   -2.1899   -0.1403 O   0  0  0  0  0  0  0  0  0  0  0  0
    2.8983    0.5289    0.4064 O   0  0  0  0  0  0  0  0  0  0  0  0
    0.9749    2.4530   -0.4650 O   0  0  0  0  0  0  0  0  0  0  0  0
   -1.6653    1.7403    0.3531 O   0  0  0  0  0  0  0  0  0  0  0  0
   -3.4483   -0.3734    0.1637 O   0  0  0  0  0  0  0  0  0  0  0  0
   -2.4859   -2.2056   -0.0150 H   0  0  0  0  0  0  0  0  0  0  0  0
   -2.3352   -1.1187   -1.4203 H   0  0  0  0  0  0  0  0  0  0  0  0
    1.8899   -2.4312   -1.0585 H   0  0  0  0  0  0  0  0  0  0  0  0
    3.5355   -0.1838    0.2406 H   0  0  0  0  0  0  0  0  0  0  0  0
    0.3153    3.1200   -0.2209 H   0  0  0  0  0  0  0  0  0  0  0  0
   -2.5654    1.3702    0.3280 H   0  0  0  0  0  0  0  0  0  0  0  0
   -4.2900   -0.7388   -0.1444 H   0  0  0  0  0  0  0  0  0  0  0  0
  1  2  1  0  0  0  0
  2  3  1  0  0  0  0
  2  4  1  0  0  0  0
  4  5  1  0  0  0  0
  4  6  1  0  0  0  0
  6  7  1  0  0  0  0
  6  8  1  0  0  0  0
  8  9  1  0  0  0  0
  8 10  1  0  0  0  0
 10 11  1  0  0  0  0
  2 12  1  0  0  0  0
 10 12  1  0  0  0  0
 10 13  1  0  0  0  0
  8 14  1  0  0  0  0
  6 15  1  0  0  0  0
  4 16  1  0  0  0  0
  1 17  1  0  0  0  0
  1 18  1  0  0  0  0
  1 19  1  0  0  0  0
 13 20  1  0  0  0  0
 14 21  1  0  0  0  0
 15 22  1  0  0  0  0
 16 23  1  0  0  0  0
 17 24  1  0  0  0  0
M  END
