 xtb: 6.7.1 (edcfbbe)
          04062518003D

 24 24  0     0  0            999 V2000
   -2.3295   -0.8089   -0.6432 C   0  0  0  0  0  0  0  0  0  0  0  0
   -1.0588   -0.5624    0.1849 C   0  0  0  0  0  0  0  0  0  0  0  0
   -1.1933   -0.9699    1.2007 H   0  0  0  0  0  0  0  0  0  0  0  0
   -0.7344    0.9489    0.3298 C   0  0  0  0  0  0  0  0  0  0  0  0
   -1.5686    1.5248   -0.0877 H   0  0  0  0  0  0  0  0  0  0  0  0
    0.5512    1.2743   -0.4509 C   0  0  0  0  0  0  0  0  0  0  0  0
    0.8227    2.3186   -0.2634 H   0  0  0  0  0  0  0  0  0  0  0  0
    1.7080    0.3836    0.0552 C   0  0  0  0  0  0  0  0  0  0  0  0
    2.5141    0.4277   -0.6892 H   0  0  0  0  0  0  0  0  0  0  0  0
    1.2283   -1.0904    0.1917 C   0  0  0  0  0  0  0  0  0  0  0  0
    1.1149   -1.3201    1.2655 H   0  0  0  0  0  0  0  0  0  0  0  0
   -0.0096   -1.2670   -0.4628 O   0  0  0  0  0  0  0  0  0  0  0  0
    2.1337   -2.0058   -0.3099 O   0  0  0  0  0  0  0  0  0  0  0  0
    2.1378    0.8950    1.2951 O   0  0  0  0  0  0  0  0  0  0  0  0
    0.3805    1.1599   -1.8377 O   0  0  0  0  0  0  0  0  0  0  0  0
   -0.6329    1.3304    1.6805 O   0  0  0  0  0  0  0  0  0  0  0  0
   -3.4561   -0.1643   -0.1164 O   0  0  0  0  0  0  0  0  0  0  0  0
   -2.4841   -1.8916   -0.7279 H   0  0  0  0  0  0  0  0  0  0  0  0
   -2.1931   -0.3971   -1.6455 H   0  0  0  0  0  0  0  0  0  0  0  0
    2.0387   -2.0701   -1.2724 H   0  0  0  0  0  0  0  0  0  0  0  0
    2.9837    0.4980    1.5476 H   0  0  0  0  0  0  0  0  0  0  0  0
    0.1229    0.2476   -2.0437 H   0  0  0  0  0  0  0  0  0  0  0  0
    0.2912    1.2464    1.9715 H   0  0  0  0  0  0  0  0  0  0  0  0
   -3.6620   -0.5206    0.7594 H   0  0  0  0  0  0  0  0  0  0  0  0
  1  2  1  0  0  0  0
  2  3  1  0  0  0  0
  2  4  1  0  0  0  0
  4  5  1  0  0  0  0
  4  6  1  0  0  0  0
  6  7  1  0  0  0  0
  6  8  1  0  0  0  0
  8  9  1  0  0  0  0
  8 10  1  0  0  0  0
 10 11  1  0  0  0  0
  2 12  1  0  0  0  0
 10 12  1  0  0  0  0
 10 13  1  0  0  0  0
  8 14  1  0  0  0  0
  6 15  1  0  0  0  0
  4 16  1  0  0  0  0
  1 17  1  0  0  0  0
  1 18  1  0  0  0  0
  1 19  1  0  0  0  0
 13 20  1  0  0  0  0
 14 21  1  0  0  0  0
 15 22  1  0  0  0  0
 16 23  1  0  0  0  0
 17 24  1  0  0  0  0
M  END
