 xtb: 6.7.1 (edcfbbe)
          04062518003D

 24 24  0     0  0            999 V2000
   -2.4211   -0.6961   -0.0088 C   0  0  0  0  0  0  0  0  0  0  0  0
   -0.9978   -0.2641    0.3554 C   0  0  0  0  0  0  0  0  0  0  0  0
   -0.9807    0.0632    1.4056 H   0  0  0  0  0  0  0  0  0  0  0  0
   -0.5073    0.8797   -0.5327 C   0  0  0  0  0  0  0  0  0  0  0  0
   -0.3848    0.5084   -1.5604 H   0  0  0  0  0  0  0  0  0  0  0  0
    0.8685    1.3467   -0.0301 C   0  0  0  0  0  0  0  0  0  0  0  0
    0.6876    2.0042    0.8354 H   0  0  0  0  0  0  0  0  0  0  0  0
    1.7197    0.1491    0.4579 C   0  0  0  0  0  0  0  0  0  0  0  0
    2.7378    0.2536    0.0582 H   0  0  0  0  0  0  0  0  0  0  0  0
    1.1857   -1.1808   -0.0918 C   0  0  0  0  0  0  0  0  0  0  0  0
    1.7300   -2.0005    0.4045 H   0  0  0  0  0  0  0  0  0  0  0  0
   -0.1616   -1.4122    0.2193 O   0  0  0  0  0  0  0  0  0  0  0  0
    1.4125   -1.1946   -1.4670 O   0  0  0  0  0  0  0  0  0  0  0  0
    1.7260    0.0337    1.8581 O   0  0  0  0  0  0  0  0  0  0  0  0
    1.4678    2.0608   -1.0818 O   0  0  0  0  0  0  0  0  0  0  0  0
   -1.4461    1.9227   -0.4890 O   0  0  0  0  0  0  0  0  0  0  0  0
   -2.9203   -1.6691    0.8713 O   0  0  0  0  0  0  0  0  0  0  0  0
   -2.4253   -1.0693   -1.0412 H   0  0  0  0  0  0  0  0  0  0  0  0
   -3.0822    0.1681    0.0651 H   0  0  0  0  0  0  0  0  0  0  0  0
    1.1587   -2.0557   -1.8336 H   0  0  0  0  0  0  0  0  0  0  0  0
    2.2543    0.7441    2.2515 H   0  0  0  0  0  0  0  0  0  0  0  0
    2.3012    2.4594   -0.7935 H   0  0  0  0  0  0  0  0  0  0  0  0
   -1.1429    2.6329   -1.0746 H   0  0  0  0  0  0  0  0  0  0  0  0
   -2.2806   -2.3951    0.9124 H   0  0  0  0  0  0  0  0  0  0  0  0
  1  2  1  0  0  0  0
  2  3  1  0  0  0  0
  2  4  1  0  0  0  0
  4  5  1  0  0  0  0
  4  6  1  0  0  0  0
  6  7  1  0  0  0  0
  6  8  1  0  0  0  0
  8  9  1  0  0  0  0
  8 10  1  0  0  0  0
 10 11  1  0  0  0  0
  2 12  1  0  0  0  0
 10 12  1  0  0  0  0
 10 13  1  0  0  0  0
  8 14  1  0  0  0  0
  6 15  1  0  0  0  0
  4 16  1  0  0  0  0
  1 17  1  0  0  0  0
  1 18  1  0  0  0  0
  1 19  1  0  0  0  0
 13 20  1  0  0  0  0
 14 21  1  0  0  0  0
 15 22  1  0  0  0  0
 16 23  1  0  0  0  0
 17 24  1  0  0  0  0
M  END
