 xtb: 6.7.1 (edcfbbe)
          04042519183D

 15 15  0     0  0            999 V2000
    1.8119   -1.1219    0.0000 C   0  0  0  0  0  0  0  0  0  0  0  0
    2.3061    0.1802   -0.0001 C   0  0  0  0  0  0  0  0  0  0  0  0
    1.4441    1.2546   -0.0000 C   0  0  0  0  0  0  0  0  0  0  0  0
    0.0600    1.0662    0.0000 C   0  0  0  0  0  0  0  0  0  0  0  0
   -0.4497   -0.2484   -0.0000 C   0  0  0  0  0  0  0  0  0  0  0  0
    0.4540   -1.3248    0.0000 C   0  0  0  0  0  0  0  0  0  0  0  0
   -1.8674   -0.5482   -0.0000 C   0  0  0  0  0  0  0  0  0  0  0  0
   -2.3518   -1.6660   -0.0000 O   0  0  0  0  0  0  0  0  0  0  0  0
   -0.6909    2.1813    0.0001 O   0  0  0  0  0  0  0  0  0  0  0  0
    2.4887   -1.9608    0.0000 H   0  0  0  0  0  0  0  0  0  0  0  0
    3.3709    0.3524    0.0004 H   0  0  0  0  0  0  0  0  0  0  0  0
    1.8107    2.2686    0.0002 H   0  0  0  0  0  0  0  0  0  0  0  0
    0.0320   -2.3188    0.0002 H   0  0  0  0  0  0  0  0  0  0  0  0
   -2.5536    0.3202   -0.0001 H   0  0  0  0  0  0  0  0  0  0  0  0
   -1.6429    2.0030    0.0001 H   0  0  0  0  0  0  0  0  0  0  0  0
  1  2  4  0  0  0  0
  2  3  4  0  0  0  0
  3  4  4  0  0  0  0
  4  5  4  0  0  0  0
  1  6  4  0  0  0  0
  5  6  4  0  0  0  0
  5  7  1  0  0  0  0
  7  8  2  0  0  0  0
  4  9  1  0  0  0  0
  1 10  1  0  0  0  0
  2 11  1  0  0  0  0
  3 12  1  0  0  0  0
  6 13  1  0  0  0  0
  7 14  1  0  0  0  0
  9 15  1  0  0  0  0
M  END
