 xtb: 6.7.1 (edcfbbe)
          04062518003D

 24 24  0     0  0            999 V2000
   -2.4217   -1.0834   -0.3778 C   0  0  0  0  0  0  0  0  0  0  0  0
   -1.0804   -0.5970    0.1889 C   0  0  0  0  0  0  0  0  0  0  0  0
   -1.1468   -0.5973    1.2887 H   0  0  0  0  0  0  0  0  0  0  0  0
   -0.7491    0.8287   -0.2801 C   0  0  0  0  0  0  0  0  0  0  0  0
   -0.7274    0.8443   -1.3814 H   0  0  0  0  0  0  0  0  0  0  0  0
    0.6434    1.2267    0.2250 C   0  0  0  0  0  0  0  0  0  0  0  0
    0.6169    1.2819    1.3268 H   0  0  0  0  0  0  0  0  0  0  0  0
    1.6710    0.1674   -0.2047 C   0  0  0  0  0  0  0  0  0  0  0  0
    1.7267    0.1566   -1.2994 H   0  0  0  0  0  0  0  0  0  0  0  0
    1.1992   -1.2156    0.2909 C   0  0  0  0  0  0  0  0  0  0  0  0
    1.1560   -1.2073    1.3949 H   0  0  0  0  0  0  0  0  0  0  0  0
   -0.0801   -1.4996   -0.2371 O   0  0  0  0  0  0  0  0  0  0  0  0
    2.0563   -2.2377   -0.0487 O   0  0  0  0  0  0  0  0  0  0  0  0
    2.9606    0.4987    0.2404 O   0  0  0  0  0  0  0  0  0  0  0  0
    0.9528    2.4932   -0.3054 O   0  0  0  0  0  0  0  0  0  0  0  0
   -1.7409    1.6994    0.1993 O   0  0  0  0  0  0  0  0  0  0  0  0
   -3.5190   -0.5096    0.2775 O   0  0  0  0  0  0  0  0  0  0  0  0
   -2.4910   -2.1625   -0.2250 H   0  0  0  0  0  0  0  0  0  0  0  0
   -2.4525   -0.8785   -1.4560 H   0  0  0  0  0  0  0  0  0  0  0  0
    1.9998   -2.4145   -1.0007 H   0  0  0  0  0  0  0  0  0  0  0  0
    3.0791    0.2351    1.1642 H   0  0  0  0  0  0  0  0  0  0  0  0
    1.9063    2.6432   -0.2146 H   0  0  0  0  0  0  0  0  0  0  0  0
   -1.4701    2.6096    0.0029 H   0  0  0  0  0  0  0  0  0  0  0  0
   -3.4035    0.4555    0.2801 H   0  0  0  0  0  0  0  0  0  0  0  0
  1  2  1  0  0  0  0
  2  3  1  0  0  0  0
  2  4  1  0  0  0  0
  4  5  1  0  0  0  0
  4  6  1  0  0  0  0
  6  7  1  0  0  0  0
  6  8  1  0  0  0  0
  8  9  1  0  0  0  0
  8 10  1  0  0  0  0
 10 11  1  0  0  0  0
  2 12  1  0  0  0  0
 10 12  1  0  0  0  0
 10 13  1  0  0  0  0
  8 14  1  0  0  0  0
  6 15  1  0  0  0  0
  4 16  1  0  0  0  0
  1 17  1  0  0  0  0
  1 18  1  0  0  0  0
  1 19  1  0  0  0  0
 13 20  1  0  0  0  0
 14 21  1  0  0  0  0
 15 22  1  0  0  0  0
 16 23  1  0  0  0  0
 17 24  1  0  0  0  0
M  END
