 xtb: 6.7.1 (edcfbbe)
          04062511353D

 27 27  0     0  0            999 V2000
    3.2408   -0.1085    1.0060 C   0  0  0  0  0  0  0  0  0  0  0  0
    1.9131   -0.1123    0.3326 C   0  0  0  0  0  0  0  0  0  0  0  0
    1.3448    1.0106   -0.1350 C   0  0  0  0  0  0  0  0  0  0  0  0
    0.0437    1.0524   -0.7752 C   0  0  0  0  0  0  0  0  0  0  0  0
   -0.3811    2.0723   -1.3138 O   0  0  0  0  0  0  0  0  0  0  0  0
   -0.7808   -0.2176   -0.6983 C   0  0  0  0  0  0  0  0  0  0  0  0
   -1.5136   -0.1970   -1.5124 H   0  0  0  0  0  0  0  0  0  0  0  0
    0.1569   -1.4126   -0.8798 C   0  0  0  0  0  0  0  0  0  0  0  0
    1.2411   -1.4396    0.1924 C   0  0  0  0  0  0  0  0  0  0  0  0
   -1.5618   -0.2102    0.6388 C   0  0  0  0  0  0  0  0  0  0  0  0
   -2.6003    0.9113    0.6277 C   0  0  0  0  0  0  0  0  0  0  0  0
   -2.2640   -1.5436    0.8929 C   0  0  0  0  0  0  0  0  0  0  0  0
    3.5949    0.9033    1.1795 H   0  0  0  0  0  0  0  0  0  0  0  0
    3.9673   -0.6337    0.3874 H   0  0  0  0  0  0  0  0  0  0  0  0
    3.1789   -0.6376    1.9549 H   0  0  0  0  0  0  0  0  0  0  0  0
    1.8559    1.9615   -0.0657 H   0  0  0  0  0  0  0  0  0  0  0  0
   -0.4105   -2.3421   -0.8744 H   0  0  0  0  0  0  0  0  0  0  0  0
    0.6312   -1.3200   -1.8605 H   0  0  0  0  0  0  0  0  0  0  0  0
    0.8074   -1.7072    1.1600 H   0  0  0  0  0  0  0  0  0  0  0  0
    1.9851   -2.2019   -0.0456 H   0  0  0  0  0  0  0  0  0  0  0  0
   -0.8558   -0.0146    1.4529 H   0  0  0  0  0  0  0  0  0  0  0  0
   -3.3729    0.7026   -0.1096 H   0  0  0  0  0  0  0  0  0  0  0  0
   -2.1453    1.8666    0.3748 H   0  0  0  0  0  0  0  0  0  0  0  0
   -3.0705    1.0033    1.6038 H   0  0  0  0  0  0  0  0  0  0  0  0
   -2.9046   -1.4538    1.7669 H   0  0  0  0  0  0  0  0  0  0  0  0
   -1.5555   -2.3453    1.0761 H   0  0  0  0  0  0  0  0  0  0  0  0
   -2.8849   -1.8112    0.0412 H   0  0  0  0  0  0  0  0  0  0  0  0
  1  2  1  0  0  0  0
  2  3  2  0  0  0  0
  3  4  1  0  0  0  0
  4  5  2  0  0  0  0
  4  6  1  0  0  0  0
  6  7  1  0  0  0  0
  6  8  1  0  0  0  0
  2  9  1  0  0  0  0
  8  9  1  0  0  0  0
  6 10  1  0  0  0  0
 10 11  1  0  0  0  0
 10 12  1  0  0  0  0
  1 13  1  0  0  0  0
  1 14  1  0  0  0  0
  1 15  1  0  0  0  0
  3 16  1  0  0  0  0
  8 17  1  0  0  0  0
  8 18  1  0  0  0  0
  9 19  1  0  0  0  0
  9 20  1  0  0  0  0
 10 21  1  0  0  0  0
 11 22  1  0  0  0  0
 11 23  1  0  0  0  0
 11 24  1  0  0  0  0
 12 25  1  0  0  0  0
 12 26  1  0  0  0  0
 12 27  1  0  0  0  0
M  END
