 xtb: 6.7.1 (edcfbbe)
          04062518003D

 24 24  0     0  0            999 V2000
   -2.5416   -0.9290    0.2395 C   0  0  0  0  0  0  0  0  0  0  0  0
   -1.1254   -0.4832    0.6086 C   0  0  0  0  0  0  0  0  0  0  0  0
   -1.0458   -0.4352    1.7065 H   0  0  0  0  0  0  0  0  0  0  0  0
   -0.8340    0.9177    0.0503 C   0  0  0  0  0  0  0  0  0  0  0  0
   -1.0640    0.9220   -1.0246 H   0  0  0  0  0  0  0  0  0  0  0  0
    0.6482    1.2678    0.2318 C   0  0  0  0  0  0  0  0  0  0  0  0
    0.8500    1.3809    1.3116 H   0  0  0  0  0  0  0  0  0  0  0  0
    1.5267    0.1410   -0.3294 C   0  0  0  0  0  0  0  0  0  0  0  0
    1.3413    0.0520   -1.4059 H   0  0  0  0  0  0  0  0  0  0  0  0
    1.1275   -1.1775    0.3617 C   0  0  0  0  0  0  0  0  0  0  0  0
    1.2945   -1.0790    1.4504 H   0  0  0  0  0  0  0  0  0  0  0  0
   -0.2296   -1.4533    0.1057 O   0  0  0  0  0  0  0  0  0  0  0  0
    1.8804   -2.2579   -0.0439 O   0  0  0  0  0  0  0  0  0  0  0  0
    2.8919    0.4432   -0.1950 O   0  0  0  0  0  0  0  0  0  0  0  0
    0.8935    2.4896   -0.4233 O   0  0  0  0  0  0  0  0  0  0  0  0
   -1.6564    1.8236    0.7410 O   0  0  0  0  0  0  0  0  0  0  0  0
   -2.6966   -0.8762   -1.1589 O   0  0  0  0  0  0  0  0  0  0  0  0
   -3.2421   -0.2496    0.7387 H   0  0  0  0  0  0  0  0  0  0  0  0
   -2.6790   -1.9515    0.6086 H   0  0  0  0  0  0  0  0  0  0  0  0
    1.6238   -2.5143   -0.9437 H   0  0  0  0  0  0  0  0  0  0  0  0
    3.1971    0.2350    0.6998 H   0  0  0  0  0  0  0  0  0  0  0  0
    1.8501    2.5815   -0.5544 H   0  0  0  0  0  0  0  0  0  0  0  0
   -1.4596    2.7159    0.4175 H   0  0  0  0  0  0  0  0  0  0  0  0
   -3.5776   -1.2030   -1.3895 H   0  0  0  0  0  0  0  0  0  0  0  0
  1  2  1  0  0  0  0
  2  3  1  0  0  0  0
  2  4  1  0  0  0  0
  4  5  1  0  0  0  0
  4  6  1  0  0  0  0
  6  7  1  0  0  0  0
  6  8  1  0  0  0  0
  8  9  1  0  0  0  0
  8 10  1  0  0  0  0
 10 11  1  0  0  0  0
  2 12  1  0  0  0  0
 10 12  1  0  0  0  0
 10 13  1  0  0  0  0
  8 14  1  0  0  0  0
  6 15  1  0  0  0  0
  4 16  1  0  0  0  0
  1 17  1  0  0  0  0
  1 18  1  0  0  0  0
  1 19  1  0  0  0  0
 13 20  1  0  0  0  0
 14 21  1  0  0  0  0
 15 22  1  0  0  0  0
 16 23  1  0  0  0  0
 17 24  1  0  0  0  0
M  END
