 xtb: 6.7.1 (edcfbbe)
          04032521473D

 16 16  0     0  0            999 V2000
   -1.3378    0.7772   -0.4103 C   0  0  0  0  0  0  0  0  0  0  0  0
   -1.5393   -0.6681    0.0377 C   0  0  0  0  0  0  0  0  0  0  0  0
   -0.1230   -1.2403    0.0237 C   0  0  0  0  0  0  0  0  0  0  0  0
    0.7968   -0.0739    0.4452 C   0  0  0  0  0  0  0  0  0  0  0  0
   -0.0740    1.1998    0.3395 C   0  0  0  0  0  0  0  0  0  0  0  0
    1.9829   -0.0034   -0.3185 O   0  0  0  0  0  0  0  0  0  0  0  0
   -2.1887    1.4129   -0.1730 H   0  0  0  0  0  0  0  0  0  0  0  0
   -1.1739    0.8116   -1.4883 H   0  0  0  0  0  0  0  0  0  0  0  0
   -1.9399   -0.6879    1.0519 H   0  0  0  0  0  0  0  0  0  0  0  0
   -2.2141   -1.2216   -0.6126 H   0  0  0  0  0  0  0  0  0  0  0  0
   -0.0114   -2.1023    0.6781 H   0  0  0  0  0  0  0  0  0  0  0  0
    0.1456   -1.5504   -0.9879 H   0  0  0  0  0  0  0  0  0  0  0  0
    1.1570   -0.2092    1.4690 H   0  0  0  0  0  0  0  0  0  0  0  0
   -0.3326    1.5483    1.3388 H   0  0  0  0  0  0  0  0  0  0  0  0
    0.4721    1.9969   -0.1633 H   0  0  0  0  0  0  0  0  0  0  0  0
    1.7483    0.1174   -1.2497 H   0  0  0  0  0  0  0  0  0  0  0  0
  1  2  1  0  0  0  0
  2  3  1  0  0  0  0
  3  4  1  0  0  0  0
  1  5  1  0  0  0  0
  4  5  1  0  0  0  0
  4  6  1  0  0  0  0
  1  7  1  0  0  0  0
  1  8  1  0  0  0  0
  2  9  1  0  0  0  0
  2 10  1  0  0  0  0
  3 11  1  0  0  0  0
  3 12  1  0  0  0  0
  4 13  1  0  0  0  0
  5 14  1  0  0  0  0
  5 15  1  0  0  0  0
  6 16  1  0  0  0  0
M  END
