 xtb: 6.7.1 (edcfbbe)
          04062518003D

 24 24  0     0  0            999 V2000
   -1.9771   -0.2375   -1.0264 C   0  0  0  0  0  0  0  0  0  0  0  0
   -1.3538   -0.1890    0.3785 C   0  0  0  0  0  0  0  0  0  0  0  0
   -2.1540   -0.3881    1.1047 H   0  0  0  0  0  0  0  0  0  0  0  0
   -0.7183    1.1719    0.6846 C   0  0  0  0  0  0  0  0  0  0  0  0
   -1.4330    1.9572    0.4050 H   0  0  0  0  0  0  0  0  0  0  0  0
    0.5488    1.4153   -0.1527 C   0  0  0  0  0  0  0  0  0  0  0  0
    1.2062    2.0619    0.4465 H   0  0  0  0  0  0  0  0  0  0  0  0
    1.3233    0.1130   -0.4170 C   0  0  0  0  0  0  0  0  0  0  0  0
    1.0565   -0.2777   -1.4115 H   0  0  0  0  0  0  0  0  0  0  0  0
    0.9325   -0.9521    0.6143 C   0  0  0  0  0  0  0  0  0  0  0  0
    1.1756   -0.5753    1.6258 H   0  0  0  0  0  0  0  0  0  0  0  0
   -0.4379   -1.2736    0.5400 O   0  0  0  0  0  0  0  0  0  0  0  0
    1.6532   -2.0999    0.3253 O   0  0  0  0  0  0  0  0  0  0  0  0
    2.6972    0.3954   -0.3571 O   0  0  0  0  0  0  0  0  0  0  0  0
    0.1634    2.0512   -1.3442 O   0  0  0  0  0  0  0  0  0  0  0  0
   -0.3579    1.2826    2.0416 O   0  0  0  0  0  0  0  0  0  0  0  0
   -2.6709   -1.4413   -1.2352 O   0  0  0  0  0  0  0  0  0  0  0  0
   -1.2017   -0.0979   -1.7879 H   0  0  0  0  0  0  0  0  0  0  0  0
   -2.7110    0.5632   -1.1275 H   0  0  0  0  0  0  0  0  0  0  0  0
    1.3558   -2.8259    0.8944 H   0  0  0  0  0  0  0  0  0  0  0  0
    3.1890   -0.4391   -0.4001 H   0  0  0  0  0  0  0  0  0  0  0  0
    0.9537    2.3584   -1.8119 H   0  0  0  0  0  0  0  0  0  0  0  0
   -1.1540    1.3227    2.5920 H   0  0  0  0  0  0  0  0  0  0  0  0
   -2.0733   -2.1753   -1.0281 H   0  0  0  0  0  0  0  0  0  0  0  0
  1  2  1  0  0  0  0
  2  3  1  0  0  0  0
  2  4  1  0  0  0  0
  4  5  1  0  0  0  0
  4  6  1  0  0  0  0
  6  7  1  0  0  0  0
  6  8  1  0  0  0  0
  8  9  1  0  0  0  0
  8 10  1  0  0  0  0
 10 11  1  0  0  0  0
  2 12  1  0  0  0  0
 10 12  1  0  0  0  0
 10 13  1  0  0  0  0
  8 14  1  0  0  0  0
  6 15  1  0  0  0  0
  4 16  1  0  0  0  0
  1 17  1  0  0  0  0
  1 18  1  0  0  0  0
  1 19  1  0  0  0  0
 13 20  1  0  0  0  0
 14 21  1  0  0  0  0
 15 22  1  0  0  0  0
 16 23  1  0  0  0  0
 17 24  1  0  0  0  0
M  END
