 xtb: 6.7.1 (edcfbbe)
          04062518003D

 24 24  0     0  0            999 V2000
   -2.4061   -1.1340   -0.3528 C   0  0  0  0  0  0  0  0  0  0  0  0
   -1.0744   -0.6240    0.2247 C   0  0  0  0  0  0  0  0  0  0  0  0
   -1.1304   -0.6500    1.3264 H   0  0  0  0  0  0  0  0  0  0  0  0
   -0.7658    0.8132   -0.2322 C   0  0  0  0  0  0  0  0  0  0  0  0
   -0.7955    0.8534   -1.3270 H   0  0  0  0  0  0  0  0  0  0  0  0
    0.6413    1.2337    0.2285 C   0  0  0  0  0  0  0  0  0  0  0  0
    0.6534    1.2913    1.3329 H   0  0  0  0  0  0  0  0  0  0  0  0
    1.6736    0.1857   -0.2160 C   0  0  0  0  0  0  0  0  0  0  0  0
    1.7149    0.1774   -1.3102 H   0  0  0  0  0  0  0  0  0  0  0  0
    1.2180   -1.2060    0.2873 C   0  0  0  0  0  0  0  0  0  0  0  0
    1.1907   -1.2046    1.3912 H   0  0  0  0  0  0  0  0  0  0  0  0
   -0.0671   -1.5076   -0.2226 O   0  0  0  0  0  0  0  0  0  0  0  0
    2.0789   -2.2186   -0.0633 O   0  0  0  0  0  0  0  0  0  0  0  0
    2.9770    0.4828    0.1959 O   0  0  0  0  0  0  0  0  0  0  0  0
    0.9951    2.4824   -0.3104 O   0  0  0  0  0  0  0  0  0  0  0  0
   -1.7312    1.7375    0.2064 O   0  0  0  0  0  0  0  0  0  0  0  0
   -3.5190   -0.4743    0.1849 O   0  0  0  0  0  0  0  0  0  0  0  0
   -2.5107   -2.1897   -0.0949 H   0  0  0  0  0  0  0  0  0  0  0  0
   -2.3736   -1.0441   -1.4452 H   0  0  0  0  0  0  0  0  0  0  0  0
    2.0935   -2.3257   -1.0272 H   0  0  0  0  0  0  0  0  0  0  0  0
    3.0208    0.5534    1.1605 H   0  0  0  0  0  0  0  0  0  0  0  0
    0.2247    3.0711   -0.2665 H   0  0  0  0  0  0  0  0  0  0  0  0
   -1.7651    1.7436    1.1754 H   0  0  0  0  0  0  0  0  0  0  0  0
   -3.4685    0.4672   -0.0507 H   0  0  0  0  0  0  0  0  0  0  0  0
  1  2  1  0  0  0  0
  2  3  1  0  0  0  0
  2  4  1  0  0  0  0
  4  5  1  0  0  0  0
  4  6  1  0  0  0  0
  6  7  1  0  0  0  0
  6  8  1  0  0  0  0
  8  9  1  0  0  0  0
  8 10  1  0  0  0  0
 10 11  1  0  0  0  0
  2 12  1  0  0  0  0
 10 12  1  0  0  0  0
 10 13  1  0  0  0  0
  8 14  1  0  0  0  0
  6 15  1  0  0  0  0
  4 16  1  0  0  0  0
  1 17  1  0  0  0  0
  1 18  1  0  0  0  0
  1 19  1  0  0  0  0
 13 20  1  0  0  0  0
 14 21  1  0  0  0  0
 15 22  1  0  0  0  0
 16 23  1  0  0  0  0
 17 24  1  0  0  0  0
M  END
