 xtb: 6.7.1 (edcfbbe)
          04042521073D

 15 14  0     0  0            999 V2000
   -2.2621    0.2220   -0.3370 C   0  0  0  0  0  0  0  0  0  0  0  0
   -0.9696    0.2898    0.4743 C   0  0  0  0  0  0  0  0  0  0  0  0
    0.0005   -0.7666    0.0419 C   0  0  0  0  0  0  0  0  0  0  0  0
    1.2977   -0.5974   -0.1651 C   0  0  0  0  0  0  0  0  0  0  0  0
    2.0445    0.6918    0.0016 C   0  0  0  0  0  0  0  0  0  0  0  0
   -2.0540    0.3790   -1.3931 H   0  0  0  0  0  0  0  0  0  0  0  0
   -2.9602    0.9865   -0.0048 H   0  0  0  0  0  0  0  0  0  0  0  0
   -2.7351   -0.7508   -0.2219 H   0  0  0  0  0  0  0  0  0  0  0  0
   -0.5239    1.2786    0.3681 H   0  0  0  0  0  0  0  0  0  0  0  0
   -1.2071    0.1394    1.5325 H   0  0  0  0  0  0  0  0  0  0  0  0
   -0.4347   -1.7473   -0.1035 H   0  0  0  0  0  0  0  0  0  0  0  0
    1.8896   -1.4443   -0.4863 H   0  0  0  0  0  0  0  0  0  0  0  0
    3.1160    0.5185   -0.0384 H   0  0  0  0  0  0  0  0  0  0  0  0
    1.8046    1.1617    0.9532 H   0  0  0  0  0  0  0  0  0  0  0  0
    1.7825    1.3896   -0.7937 H   0  0  0  0  0  0  0  0  0  0  0  0
  1  2  1  0  0  0  0
  2  3  1  0  0  0  0
  3  4  2  0  0  0  0
  4  5  1  0  0  0  0
  1  6  1  0  0  0  0
  1  7  1  0  0  0  0
  1  8  1  0  0  0  0
  2  9  1  0  0  0  0
  2 10  1  0  0  0  0
  3 11  1  0  0  0  0
  4 12  1  0  0  0  0
  5 13  1  0  0  0  0
  5 14  1  0  0  0  0
  5 15  1  0  0  0  0
M  END
