 xtb: 6.7.1 (edcfbbe)
          04062518003D

 24 24  0     0  0            999 V2000
   -2.4500   -1.0142   -0.3846 C   0  0  0  0  0  0  0  0  0  0  0  0
   -1.0852   -0.5470    0.1303 C   0  0  0  0  0  0  0  0  0  0  0  0
   -1.1350   -0.5384    1.2327 H   0  0  0  0  0  0  0  0  0  0  0  0
   -0.7234    0.8683   -0.3626 C   0  0  0  0  0  0  0  0  0  0  0  0
   -0.6514    0.8607   -1.4559 H   0  0  0  0  0  0  0  0  0  0  0  0
    0.6532    1.2528    0.2040 C   0  0  0  0  0  0  0  0  0  0  0  0
    0.5915    1.3136    1.3041 H   0  0  0  0  0  0  0  0  0  0  0  0
    1.6791    0.1700   -0.1550 C   0  0  0  0  0  0  0  0  0  0  0  0
    1.8213    0.1610   -1.2457 H   0  0  0  0  0  0  0  0  0  0  0  0
    1.1644   -1.2176    0.2607 C   0  0  0  0  0  0  0  0  0  0  0  0
    1.0985   -1.2514    1.3704 H   0  0  0  0  0  0  0  0  0  0  0  0
   -0.1070   -1.4795   -0.2851 O   0  0  0  0  0  0  0  0  0  0  0  0
    2.0520   -2.1616   -0.2154 O   0  0  0  0  0  0  0  0  0  0  0  0
    2.8788    0.4850    0.5047 O   0  0  0  0  0  0  0  0  0  0  0  0
    1.0312    2.4975   -0.3232 O   0  0  0  0  0  0  0  0  0  0  0  0
   -1.7193    1.8025   -0.0665 O   0  0  0  0  0  0  0  0  0  0  0  0
   -3.4163   -0.6773    0.5815 O   0  0  0  0  0  0  0  0  0  0  0  0
   -2.3971   -2.1011   -0.5276 H   0  0  0  0  0  0  0  0  0  0  0  0
   -2.6631   -0.5325   -1.3441 H   0  0  0  0  0  0  0  0  0  0  0  0
    1.6521   -3.0438   -0.1638 H   0  0  0  0  0  0  0  0  0  0  0  0
    3.5395   -0.1932    0.3004 H   0  0  0  0  0  0  0  0  0  0  0  0
    1.9375    2.6880   -0.0361 H   0  0  0  0  0  0  0  0  0  0  0  0
   -1.8337    1.8757    0.8924 H   0  0  0  0  0  0  0  0  0  0  0  0
   -4.3000   -0.8330    0.2205 H   0  0  0  0  0  0  0  0  0  0  0  0
  1  2  1  0  0  0  0
  2  3  1  0  0  0  0
  2  4  1  0  0  0  0
  4  5  1  0  0  0  0
  4  6  1  0  0  0  0
  6  7  1  0  0  0  0
  6  8  1  0  0  0  0
  8  9  1  0  0  0  0
  8 10  1  0  0  0  0
 10 11  1  0  0  0  0
  2 12  1  0  0  0  0
 10 12  1  0  0  0  0
 10 13  1  0  0  0  0
  8 14  1  0  0  0  0
  6 15  1  0  0  0  0
  4 16  1  0  0  0  0
  1 17  1  0  0  0  0
  1 18  1  0  0  0  0
  1 19  1  0  0  0  0
 13 20  1  0  0  0  0
 14 21  1  0  0  0  0
 15 22  1  0  0  0  0
 16 23  1  0  0  0  0
 17 24  1  0  0  0  0
M  END
