 xtb: 6.7.1 (edcfbbe)
          04052503223D

 18 18  0     0  0            999 V2000
   -3.0950    0.0112   -0.6892 C   0  0  0  0  0  0  0  0  0  0  0  0
   -2.3267   -0.1865    0.4845 O   0  0  0  0  0  0  0  0  0  0  0  0
   -0.9491   -0.0900    0.2745 C   0  0  0  0  0  0  0  0  0  0  0  0
   -0.2038   -1.2316    0.0099 C   0  0  0  0  0  0  0  0  0  0  0  0
    1.1615   -1.1448   -0.1656 C   0  0  0  0  0  0  0  0  0  0  0  0
    1.8173    0.0877   -0.0849 C   0  0  0  0  0  0  0  0  0  0  0  0
    1.0538    1.2292    0.1793 C   0  0  0  0  0  0  0  0  0  0  0  0
   -0.3114    1.1413    0.3552 C   0  0  0  0  0  0  0  0  0  0  0  0
    3.1825    0.1653   -0.1937 N   0  0  0  0  0  0  0  0  0  0  0  0
   -4.1354   -0.0804   -0.3859 H   0  0  0  0  0  0  0  0  0  0  0  0
   -2.8593   -0.7470   -1.4432 H   0  0  0  0  0  0  0  0  0  0  0  0
   -2.9170    1.0048   -1.1129 H   0  0  0  0  0  0  0  0  0  0  0  0
   -0.7057   -2.1859   -0.0494 H   0  0  0  0  0  0  0  0  0  0  0  0
    1.7341   -2.0382   -0.3656 H   0  0  0  0  0  0  0  0  0  0  0  0
    1.5424    2.1895    0.2494 H   0  0  0  0  0  0  0  0  0  0  0  0
   -0.8952    2.0257    0.5636 H   0  0  0  0  0  0  0  0  0  0  0  0
    3.5714    1.0728   -0.3850 H   0  0  0  0  0  0  0  0  0  0  0  0
    3.6474   -0.6116   -0.6315 H   0  0  0  0  0  0  0  0  0  0  0  0
  1  2  1  0  0  0  0
  2  3  1  0  0  0  0
  3  4  4  0  0  0  0
  4  5  4  0  0  0  0
  5  6  4  0  0  0  0
  6  7  4  0  0  0  0
  3  8  4  0  0  0  0
  7  8  4  0  0  0  0
  6  9  1  0  0  0  0
  1 10  1  0  0  0  0
  1 11  1  0  0  0  0
  1 12  1  0  0  0  0
  4 13  1  0  0  0  0
  5 14  1  0  0  0  0
  7 15  1  0  0  0  0
  8 16  1  0  0  0  0
  9 17  1  0  0  0  0
  9 18  1  0  0  0  0
M  END
