 xtb: 6.7.1 (edcfbbe)
          04062518003D

 24 24  0     0  0            999 V2000
   -2.1186   -1.2438   -0.1124 C   0  0  0  0  0  0  0  0  0  0  0  0
   -1.2264   -0.3612    0.7872 C   0  0  0  0  0  0  0  0  0  0  0  0
   -1.7651   -0.1676    1.7208 H   0  0  0  0  0  0  0  0  0  0  0  0
   -0.9030    0.9903    0.1138 C   0  0  0  0  0  0  0  0  0  0  0  0
   -1.1401    0.9288   -0.9583 H   0  0  0  0  0  0  0  0  0  0  0  0
    0.5932    1.2882    0.2480 C   0  0  0  0  0  0  0  0  0  0  0  0
    0.8437    1.3750    1.3168 H   0  0  0  0  0  0  0  0  0  0  0  0
    1.3841    0.1296   -0.3618 C   0  0  0  0  0  0  0  0  0  0  0  0
    1.1085    0.0395   -1.4237 H   0  0  0  0  0  0  0  0  0  0  0  0
    1.0210   -1.1791    0.3589 C   0  0  0  0  0  0  0  0  0  0  0  0
    1.8671   -1.4459    1.0055 H   0  0  0  0  0  0  0  0  0  0  0  0
   -0.0590   -1.0469    1.2443 O   0  0  0  0  0  0  0  0  0  0  0  0
    0.7941   -2.1692   -0.6017 O   0  0  0  0  0  0  0  0  0  0  0  0
    2.7680    0.3175   -0.2346 O   0  0  0  0  0  0  0  0  0  0  0  0
    0.9536    2.4606   -0.4368 O   0  0  0  0  0  0  0  0  0  0  0  0
   -1.5901    2.0665    0.7114 O   0  0  0  0  0  0  0  0  0  0  0  0
   -1.7059   -1.3023   -1.4542 O   0  0  0  0  0  0  0  0  0  0  0  0
   -3.1247   -0.8207   -0.1323 H   0  0  0  0  0  0  0  0  0  0  0  0
   -2.1667   -2.2463    0.3294 H   0  0  0  0  0  0  0  0  0  0  0  0
    0.8431   -3.0495   -0.1975 H   0  0  0  0  0  0  0  0  0  0  0  0
    2.9840    1.1991   -0.5778 H   0  0  0  0  0  0  0  0  0  0  0  0
    0.3716    3.1761   -0.1393 H   0  0  0  0  0  0  0  0  0  0  0  0
   -2.5267    2.0363    0.4744 H   0  0  0  0  0  0  0  0  0  0  0  0
   -0.8248   -1.7212   -1.4864 H   0  0  0  0  0  0  0  0  0  0  0  0
  1  2  1  0  0  0  0
  2  3  1  0  0  0  0
  2  4  1  0  0  0  0
  4  5  1  0  0  0  0
  4  6  1  0  0  0  0
  6  7  1  0  0  0  0
  6  8  1  0  0  0  0
  8  9  1  0  0  0  0
  8 10  1  0  0  0  0
 10 11  1  0  0  0  0
  2 12  1  0  0  0  0
 10 12  1  0  0  0  0
 10 13  1  0  0  0  0
  8 14  1  0  0  0  0
  6 15  1  0  0  0  0
  4 16  1  0  0  0  0
  1 17  1  0  0  0  0
  1 18  1  0  0  0  0
  1 19  1  0  0  0  0
 13 20  1  0  0  0  0
 14 21  1  0  0  0  0
 15 22  1  0  0  0  0
 16 23  1  0  0  0  0
 17 24  1  0  0  0  0
M  END
