 xtb: 6.7.1 (edcfbbe)
          04062518003D

 24 24  0     0  0            999 V2000
   -2.4665   -0.8348    0.0144 C   0  0  0  0  0  0  0  0  0  0  0  0
   -1.0748   -0.5271    0.5790 C   0  0  0  0  0  0  0  0  0  0  0  0
   -1.0339   -0.8420    1.6349 H   0  0  0  0  0  0  0  0  0  0  0  0
   -0.7415    0.9861    0.5189 C   0  0  0  0  0  0  0  0  0  0  0  0
   -1.6152    1.5170    0.1244 H   0  0  0  0  0  0  0  0  0  0  0  0
    0.4366    1.2271   -0.4396 C   0  0  0  0  0  0  0  0  0  0  0  0
    0.7416    2.2782   -0.3314 H   0  0  0  0  0  0  0  0  0  0  0  0
    1.6369    0.3514   -0.0223 C   0  0  0  0  0  0  0  0  0  0  0  0
    2.3646    0.3299   -0.8442 H   0  0  0  0  0  0  0  0  0  0  0  0
    1.1764   -1.1083    0.2137 C   0  0  0  0  0  0  0  0  0  0  0  0
    1.2670   -1.3299    1.3019 H   0  0  0  0  0  0  0  0  0  0  0  0
   -0.1584   -1.3110   -0.1688 O   0  0  0  0  0  0  0  0  0  0  0  0
    1.9777   -1.9514   -0.5338 O   0  0  0  0  0  0  0  0  0  0  0  0
    2.1943    0.9203    1.1371 O   0  0  0  0  0  0  0  0  0  0  0  0
    0.0032    0.9509   -1.7430 O   0  0  0  0  0  0  0  0  0  0  0  0
   -0.4948    1.5220    1.7929 O   0  0  0  0  0  0  0  0  0  0  0  0
   -2.7287   -0.1787   -1.1983 O   0  0  0  0  0  0  0  0  0  0  0  0
   -3.2280   -0.4956    0.7190 H   0  0  0  0  0  0  0  0  0  0  0  0
   -2.5452   -1.9230   -0.1130 H   0  0  0  0  0  0  0  0  0  0  0  0
    1.5346   -2.8076   -0.6405 H   0  0  0  0  0  0  0  0  0  0  0  0
    3.0686    0.5431    1.3104 H   0  0  0  0  0  0  0  0  0  0  0  0
    0.6684    1.2372   -2.3850 H   0  0  0  0  0  0  0  0  0  0  0  0
    0.4390    1.3815    2.0258 H   0  0  0  0  0  0  0  0  0  0  0  0
   -1.9471   -0.2537   -1.7679 H   0  0  0  0  0  0  0  0  0  0  0  0
  1  2  1  0  0  0  0
  2  3  1  0  0  0  0
  2  4  1  0  0  0  0
  4  5  1  0  0  0  0
  4  6  1  0  0  0  0
  6  7  1  0  0  0  0
  6  8  1  0  0  0  0
  8  9  1  0  0  0  0
  8 10  1  0  0  0  0
 10 11  1  0  0  0  0
  2 12  1  0  0  0  0
 10 12  1  0  0  0  0
 10 13  1  0  0  0  0
  8 14  1  0  0  0  0
  6 15  1  0  0  0  0
  4 16  1  0  0  0  0
  1 17  1  0  0  0  0
  1 18  1  0  0  0  0
  1 19  1  0  0  0  0
 13 20  1  0  0  0  0
 14 21  1  0  0  0  0
 15 22  1  0  0  0  0
 16 23  1  0  0  0  0
 17 24  1  0  0  0  0
M  END
