 xtb: 6.7.1 (edcfbbe)
          04032521503D

 21 21  0     0  0            999 V2000
    2.3100   -0.1819   -0.4216 C   0  0  0  0  0  0  0  0  0  0  0  0
    1.0826    0.1035    0.4415 C   0  0  0  0  0  0  0  0  0  0  0  0
    0.2692    1.2617   -0.1558 C   0  0  0  0  0  0  0  0  0  0  0  0
   -1.1788    1.2055    0.3183 C   0  0  0  0  0  0  0  0  0  0  0  0
   -1.8817   -0.0327   -0.2528 C   0  0  0  0  0  0  0  0  0  0  0  0
   -0.8935   -1.1860   -0.4641 C   0  0  0  0  0  0  0  0  0  0  0  0
    0.2028   -1.1501    0.5948 C   0  0  0  0  0  0  0  0  0  0  0  0
    2.8939    0.7252   -0.5616 H   0  0  0  0  0  0  0  0  0  0  0  0
    2.9448   -0.9297    0.0485 H   0  0  0  0  0  0  0  0  0  0  0  0
    2.0103   -0.5512   -1.3999 H   0  0  0  0  0  0  0  0  0  0  0  0
    1.4307    0.4009    1.4370 H   0  0  0  0  0  0  0  0  0  0  0  0
    0.7228    2.2126    0.1301 H   0  0  0  0  0  0  0  0  0  0  0  0
    0.2882    1.2041   -1.2458 H   0  0  0  0  0  0  0  0  0  0  0  0
   -1.1897    1.1736    1.4096 H   0  0  0  0  0  0  0  0  0  0  0  0
   -1.7107    2.1078    0.0122 H   0  0  0  0  0  0  0  0  0  0  0  0
   -2.6735   -0.3442    0.4310 H   0  0  0  0  0  0  0  0  0  0  0  0
   -2.3526    0.2146   -1.2060 H   0  0  0  0  0  0  0  0  0  0  0  0
   -1.4235   -2.1391   -0.4228 H   0  0  0  0  0  0  0  0  0  0  0  0
   -0.4364   -1.1107   -1.4521 H   0  0  0  0  0  0  0  0  0  0  0  0
   -0.2647   -1.1597    1.5813 H   0  0  0  0  0  0  0  0  0  0  0  0
    0.8251   -2.0434    0.5192 H   0  0  0  0  0  0  0  0  0  0  0  0
  1  2  1  0  0  0  0
  2  3  1  0  0  0  0
  3  4  1  0  0  0  0
  4  5  1  0  0  0  0
  5  6  1  0  0  0  0
  2  7  1  0  0  0  0
  6  7  1  0  0  0  0
  1  8  1  0  0  0  0
  1  9  1  0  0  0  0
  1 10  1  0  0  0  0
  2 11  1  0  0  0  0
  3 12  1  0  0  0  0
  3 13  1  0  0  0  0
  4 14  1  0  0  0  0
  4 15  1  0  0  0  0
  5 16  1  0  0  0  0
  5 17  1  0  0  0  0
  6 18  1  0  0  0  0
  6 19  1  0  0  0  0
  7 20  1  0  0  0  0
  7 21  1  0  0  0  0
M  END
