 xtb: 6.7.1 (edcfbbe)
          04062508313D

 24 24  0     0  0            999 V2000
   -2.8835    0.9059    0.6906 C   0  0  0  0  0  0  0  0  0  0  0  0
   -1.7053    0.7588   -0.1066 O   0  0  0  0  0  0  0  0  0  0  0  0
   -1.0410   -0.3887   -0.0715 C   0  0  0  0  0  0  0  0  0  0  0  0
   -1.3786   -1.3348    0.6116 O   0  0  0  0  0  0  0  0  0  0  0  0
    0.1371   -0.3926   -1.0284 C   0  0  0  0  0  0  0  0  0  0  0  0
    1.1691   -1.4608   -0.6342 C   0  0  0  0  0  0  0  0  0  0  0  0
    2.3085   -0.8590    0.1956 C   0  0  0  0  0  0  0  0  0  0  0  0
    1.7714    0.2615    1.0789 C   0  0  0  0  0  0  0  0  0  0  0  0
    1.3375    1.4510    0.2154 C   0  0  0  0  0  0  0  0  0  0  0  0
    0.7920    0.9860   -1.1408 C   0  0  0  0  0  0  0  0  0  0  0  0
   -3.0590   -0.0039    1.2659 H   0  0  0  0  0  0  0  0  0  0  0  0
   -3.7175    1.0981    0.0181 H   0  0  0  0  0  0  0  0  0  0  0  0
   -2.7311    1.7543    1.3552 H   0  0  0  0  0  0  0  0  0  0  0  0
   -0.3038   -0.6568   -1.9967 H   0  0  0  0  0  0  0  0  0  0  0  0
    0.6541   -2.2291   -0.0534 H   0  0  0  0  0  0  0  0  0  0  0  0
    1.5748   -1.9335   -1.5283 H   0  0  0  0  0  0  0  0  0  0  0  0
    2.7637   -1.6389    0.8068 H   0  0  0  0  0  0  0  0  0  0  0  0
    3.0823   -0.4557   -0.4593 H   0  0  0  0  0  0  0  0  0  0  0  0
    0.9210   -0.1223    1.6484 H   0  0  0  0  0  0  0  0  0  0  0  0
    2.5287    0.5796    1.7965 H   0  0  0  0  0  0  0  0  0  0  0  0
    0.5766    2.0253    0.7460 H   0  0  0  0  0  0  0  0  0  0  0  0
    2.1883    2.1124    0.0457 H   0  0  0  0  0  0  0  0  0  0  0  0
    0.0754    1.7116   -1.5238 H   0  0  0  0  0  0  0  0  0  0  0  0
    1.6058    0.9037   -1.8615 H   0  0  0  0  0  0  0  0  0  0  0  0
  1  2  1  0  0  0  0
  2  3  1  0  0  0  0
  3  4  2  0  0  0  0
  3  5  1  0  0  0  0
  5  6  1  0  0  0  0
  6  7  1  0  0  0  0
  7  8  1  0  0  0  0
  8  9  1  0  0  0  0
  5 10  1  0  0  0  0
  9 10  1  0  0  0  0
  1 11  1  0  0  0  0
  1 12  1  0  0  0  0
  1 13  1  0  0  0  0
  5 14  1  0  0  0  0
  6 15  1  0  0  0  0
  6 16  1  0  0  0  0
  7 17  1  0  0  0  0
  7 18  1  0  0  0  0
  8 19  1  0  0  0  0
  8 20  1  0  0  0  0
  9 21  1  0  0  0  0
  9 22  1  0  0  0  0
 10 23  1  0  0  0  0
 10 24  1  0  0  0  0
M  END
