 xtb: 6.7.1 (edcfbbe)
          04062518003D

 24 24  0     0  0            999 V2000
   -2.5642   -0.8718    0.2936 C   0  0  0  0  0  0  0  0  0  0  0  0
   -1.1347   -0.4266    0.6335 C   0  0  0  0  0  0  0  0  0  0  0  0
   -1.0283   -0.3404    1.7252 H   0  0  0  0  0  0  0  0  0  0  0  0
   -0.8224    0.9397    0.0107 C   0  0  0  0  0  0  0  0  0  0  0  0
   -1.0645    0.8935   -1.0639 H   0  0  0  0  0  0  0  0  0  0  0  0
    0.6677    1.2904    0.1798 C   0  0  0  0  0  0  0  0  0  0  0  0
    0.8770    1.4545    1.2437 H   0  0  0  0  0  0  0  0  0  0  0  0
    1.5434    0.1377   -0.3166 C   0  0  0  0  0  0  0  0  0  0  0  0
    1.4019    0.0055   -1.4016 H   0  0  0  0  0  0  0  0  0  0  0  0
    1.0967   -1.1671    0.3677 C   0  0  0  0  0  0  0  0  0  0  0  0
    1.2716   -1.0695    1.4598 H   0  0  0  0  0  0  0  0  0  0  0  0
   -0.2660   -1.4281    0.1364 O   0  0  0  0  0  0  0  0  0  0  0  0
    1.8361   -2.2003   -0.1725 O   0  0  0  0  0  0  0  0  0  0  0  0
    2.8841    0.4225   -0.0216 O   0  0  0  0  0  0  0  0  0  0  0  0
    0.9556    2.5167   -0.4418 O   0  0  0  0  0  0  0  0  0  0  0  0
   -1.6294    1.8968    0.6486 O   0  0  0  0  0  0  0  0  0  0  0  0
   -2.7399   -1.0776   -1.0828 O   0  0  0  0  0  0  0  0  0  0  0  0
   -3.2527   -0.0781    0.5861 H   0  0  0  0  0  0  0  0  0  0  0  0
   -2.7933   -1.7855    0.8546 H   0  0  0  0  0  0  0  0  0  0  0  0
    1.4835   -3.0532    0.1255 H   0  0  0  0  0  0  0  0  0  0  0  0
    3.4298   -0.3367   -0.2781 H   0  0  0  0  0  0  0  0  0  0  0  0
    1.0323    2.3956   -1.3994 H   0  0  0  0  0  0  0  0  0  0  0  0
   -1.2993    2.7780    0.4111 H   0  0  0  0  0  0  0  0  0  0  0  0
   -2.1139   -1.7599   -1.3680 H   0  0  0  0  0  0  0  0  0  0  0  0
  1  2  1  0  0  0  0
  2  3  1  0  0  0  0
  2  4  1  0  0  0  0
  4  5  1  0  0  0  0
  4  6  1  0  0  0  0
  6  7  1  0  0  0  0
  6  8  1  0  0  0  0
  8  9  1  0  0  0  0
  8 10  1  0  0  0  0
 10 11  1  0  0  0  0
  2 12  1  0  0  0  0
 10 12  1  0  0  0  0
 10 13  1  0  0  0  0
  8 14  1  0  0  0  0
  6 15  1  0  0  0  0
  4 16  1  0  0  0  0
  1 17  1  0  0  0  0
  1 18  1  0  0  0  0
  1 19  1  0  0  0  0
 13 20  1  0  0  0  0
 14 21  1  0  0  0  0
 15 22  1  0  0  0  0
 16 23  1  0  0  0  0
 17 24  1  0  0  0  0
M  END
