 xtb: 6.7.1 (edcfbbe)
          04032521363D

 13 13  0     0  0            999 V2000
   -1.9446    0.6453    0.0000 C   0  0  0  0  0  0  0  0  0  0  0  0
   -1.9088   -0.7399    0.0000 C   0  0  0  0  0  0  0  0  0  0  0  0
   -0.6901   -1.3964    0.0000 C   0  0  0  0  0  0  0  0  0  0  0  0
    0.4662   -0.6468   -0.0001 C   0  0  0  0  0  0  0  0  0  0  0  0
    0.4619    0.7451   -0.0001 C   0  0  0  0  0  0  0  0  0  0  0  0
   -0.7760    1.3828   -0.0000 C   0  0  0  0  0  0  0  0  0  0  0  0
    1.5946    1.4862    0.0000 O   0  0  0  0  0  0  0  0  0  0  0  0
    1.6851   -1.2854    0.0000 F   0  0  0  0  0  0  0  0  0  0  0  0
   -2.8924    1.1591   -0.0001 H   0  0  0  0  0  0  0  0  0  0  0  0
   -2.8227   -1.3104   -0.0003 H   0  0  0  0  0  0  0  0  0  0  0  0
   -0.6214   -2.4719   -0.0002 H   0  0  0  0  0  0  0  0  0  0  0  0
   -0.7890    2.4604    0.0005 H   0  0  0  0  0  0  0  0  0  0  0  0
    2.3807    0.9175    0.0001 H   0  0  0  0  0  0  0  0  0  0  0  0
  1  2  4  0  0  0  0
  2  3  4  0  0  0  0
  3  4  4  0  0  0  0
  4  5  4  0  0  0  0
  1  6  4  0  0  0  0
  5  6  4  0  0  0  0
  5  7  1  0  0  0  0
  4  8  1  0  0  0  0
  1  9  1  0  0  0  0
  2 10  1  0  0  0  0
  3 11  1  0  0  0  0
  6 12  1  0  0  0  0
  7 13  1  0  0  0  0
M  END
