 xtb: 6.7.1 (edcfbbe)
          04062518003D

 24 24  0     0  0            999 V2000
   -1.7931   -1.0572   -0.6810 C   0  0  0  0  0  0  0  0  0  0  0  0
   -1.0426   -0.4914    0.5350 C   0  0  0  0  0  0  0  0  0  0  0  0
   -1.7101   -0.5939    1.3996 H   0  0  0  0  0  0  0  0  0  0  0  0
   -0.7218    1.0061    0.3841 C   0  0  0  0  0  0  0  0  0  0  0  0
   -1.5871    1.4795   -0.0931 H   0  0  0  0  0  0  0  0  0  0  0  0
    0.5485    1.2458   -0.4610 C   0  0  0  0  0  0  0  0  0  0  0  0
    0.8265    2.3027   -0.3314 H   0  0  0  0  0  0  0  0  0  0  0  0
    1.7050    0.3743    0.0693 C   0  0  0  0  0  0  0  0  0  0  0  0
    2.5402    0.4294   -0.6412 H   0  0  0  0  0  0  0  0  0  0  0  0
    1.2657   -1.0999    0.1283 C   0  0  0  0  0  0  0  0  0  0  0  0
    2.0107   -1.6754    0.6924 H   0  0  0  0  0  0  0  0  0  0  0  0
    0.0932   -1.2737    0.8854 O   0  0  0  0  0  0  0  0  0  0  0  0
    1.1977   -1.6640   -1.1418 O   0  0  0  0  0  0  0  0  0  0  0  0
    2.0988    0.7616    1.3622 O   0  0  0  0  0  0  0  0  0  0  0  0
    0.3774    0.9399   -1.8257 O   0  0  0  0  0  0  0  0  0  0  0  0
   -0.5883    1.6373    1.6344 O   0  0  0  0  0  0  0  0  0  0  0  0
   -3.0789   -0.4761   -0.6979 O   0  0  0  0  0  0  0  0  0  0  0  0
   -1.8441   -2.1458   -0.5590 H   0  0  0  0  0  0  0  0  0  0  0  0
   -1.2589   -0.8284   -1.6086 H   0  0  0  0  0  0  0  0  0  0  0  0
    0.8673   -1.0025   -1.7759 H   0  0  0  0  0  0  0  0  0  0  0  0
    2.6625    1.5479    1.3159 H   0  0  0  0  0  0  0  0  0  0  0  0
   -0.1956    1.6002   -2.2414 H   0  0  0  0  0  0  0  0  0  0  0  0
    0.1622    1.2324    2.1022 H   0  0  0  0  0  0  0  0  0  0  0  0
   -3.6038   -0.8891   -1.3980 H   0  0  0  0  0  0  0  0  0  0  0  0
  1  2  1  0  0  0  0
  2  3  1  0  0  0  0
  2  4  1  0  0  0  0
  4  5  1  0  0  0  0
  4  6  1  0  0  0  0
  6  7  1  0  0  0  0
  6  8  1  0  0  0  0
  8  9  1  0  0  0  0
  8 10  1  0  0  0  0
 10 11  1  0  0  0  0
  2 12  1  0  0  0  0
 10 12  1  0  0  0  0
 10 13  1  0  0  0  0
  8 14  1  0  0  0  0
  6 15  1  0  0  0  0
  4 16  1  0  0  0  0
  1 17  1  0  0  0  0
  1 18  1  0  0  0  0
  1 19  1  0  0  0  0
 13 20  1  0  0  0  0
 14 21  1  0  0  0  0
 15 22  1  0  0  0  0
 16 23  1  0  0  0  0
 17 24  1  0  0  0  0
M  END
