 xtb: 6.7.1 (edcfbbe)
          04062520053D

 27 27  0     0  0            999 V2000
   -2.7151    0.5980    1.2021 C   0  0  0  0  0  0  0  0  0  0  0  0
   -1.4893    0.4648    0.3467 C   0  0  0  0  0  0  0  0  0  0  0  0
   -0.8864    1.5146   -0.1942 C   0  0  0  0  0  0  0  0  0  0  0  0
    0.3280    1.4673   -1.0665 C   0  0  0  0  0  0  0  0  0  0  0  0
    1.0664    0.1248   -1.0163 C   0  0  0  0  0  0  0  0  0  0  0  0
    1.6302    0.0145   -1.9493 H   0  0  0  0  0  0  0  0  0  0  0  0
    0.0430   -1.0165   -0.9923 C   0  0  0  0  0  0  0  0  0  0  0  0
   -0.9497   -0.9386    0.1662 C   0  0  0  0  0  0  0  0  0  0  0  0
   -0.4517   -1.2427    1.1024 H   0  0  0  0  0  0  0  0  0  0  0  0
   -1.9724   -1.8847   -0.1237 O   0  0  0  0  0  0  0  0  0  0  0  0
    2.0800    0.0321    0.1035 C   0  0  0  0  0  0  0  0  0  0  0  0
    3.2756   -0.4887   -0.1345 C   0  0  0  0  0  0  0  0  0  0  0  0
    1.7276    0.5273    1.4756 C   0  0  0  0  0  0  0  0  0  0  0  0
   -2.9366    1.6455    1.3868 H   0  0  0  0  0  0  0  0  0  0  0  0
   -2.5691    0.0977    2.1591 H   0  0  0  0  0  0  0  0  0  0  0  0
   -3.5750    0.1502    0.7049 H   0  0  0  0  0  0  0  0  0  0  0  0
   -1.2953    2.5040   -0.0299 H   0  0  0  0  0  0  0  0  0  0  0  0
    0.0081    1.6544   -2.0969 H   0  0  0  0  0  0  0  0  0  0  0  0
    1.0098    2.2778   -0.7968 H   0  0  0  0  0  0  0  0  0  0  0  0
   -0.5449   -0.9831   -1.9123 H   0  0  0  0  0  0  0  0  0  0  0  0
    0.5531   -1.9807   -0.9578 H   0  0  0  0  0  0  0  0  0  0  0  0
   -2.5701   -1.9462    0.6328 H   0  0  0  0  0  0  0  0  0  0  0  0
    4.0219   -0.5746    0.6375 H   0  0  0  0  0  0  0  0  0  0  0  0
    3.5565   -0.8590   -1.1062 H   0  0  0  0  0  0  0  0  0  0  0  0
    1.2797   -0.2743    2.0614 H   0  0  0  0  0  0  0  0  0  0  0  0
    2.6235    0.8550    1.9971 H   0  0  0  0  0  0  0  0  0  0  0  0
    1.0171    1.3464    1.4362 H   0  0  0  0  0  0  0  0  0  0  0  0
  1  2  1  0  0  0  0
  2  3  2  0  0  0  0
  3  4  1  0  0  0  0
  4  5  1  0  0  0  0
  5  6  1  0  0  0  0
  5  7  1  0  0  0  0
  2  8  1  0  0  0  0
  7  8  1  0  0  0  0
  8  9  1  0  0  0  0
  8 10  1  0  0  0  0
  5 11  1  0  0  0  0
 11 12  2  0  0  0  0
 11 13  1  0  0  0  0
  1 14  1  0  0  0  0
  1 15  1  0  0  0  0
  1 16  1  0  0  0  0
  3 17  1  0  0  0  0
  4 18  1  0  0  0  0
  4 19  1  0  0  0  0
  7 20  1  0  0  0  0
  7 21  1  0  0  0  0
 10 22  1  0  0  0  0
 12 23  1  0  0  0  0
 12 24  1  0  0  0  0
 13 25  1  0  0  0  0
 13 26  1  0  0  0  0
 13 27  1  0  0  0  0
M  END
