 xtb: 6.7.1 (edcfbbe)
          04032521453D

 10  9  0     0  0            999 V2000
   -1.3823   -0.8728    0.2330 C   0  0  0  0  0  0  0  0  0  0  0  0
    0.0029    0.1533   -0.4340 S   0  0  0  0  0  0  0  0  0  0  0  0
    0.0028    1.3998    0.3892 O   0  0  0  0  0  0  0  0  0  0  0  0
    1.3748   -0.8708    0.2316 C   0  0  0  0  0  0  0  0  0  0  0  0
   -2.0259   -1.1296   -0.6000 H   0  0  0  0  0  0  0  0  0  0  0  0
   -1.9215   -0.2577    0.9446 H   0  0  0  0  0  0  0  0  0  0  0  0
   -1.0076   -1.7693    0.7086 H   0  0  0  0  0  0  0  0  0  0  0  0
    1.3301   -1.8365   -0.2557 H   0  0  0  0  0  0  0  0  0  0  0  0
    1.2739   -0.9571    1.3074 H   0  0  0  0  0  0  0  0  0  0  0  0
    2.3047   -0.3688   -0.0138 H   0  0  0  0  0  0  0  0  0  0  0  0
  1  2  1  0  0  0  0
  2  3  2  0  0  0  0
  2  4  1  0  0  0  0
  1  5  1  0  0  0  0
  1  6  1  0  0  0  0
  1  7  1  0  0  0  0
  4  8  1  0  0  0  0
  4  9  1  0  0  0  0
  4 10  1  0  0  0  0
M  END
