 xtb: 6.7.1 (edcfbbe)
          04062518003D

 24 24  0     0  0            999 V2000
   -1.8392   -1.0706   -0.6160 C   0  0  0  0  0  0  0  0  0  0  0  0
   -1.0256   -0.4898    0.5582 C   0  0  0  0  0  0  0  0  0  0  0  0
   -1.6374   -0.5535    1.4674 H   0  0  0  0  0  0  0  0  0  0  0  0
   -0.6965    1.0004    0.3446 C   0  0  0  0  0  0  0  0  0  0  0  0
   -1.5321    1.4422   -0.2108 H   0  0  0  0  0  0  0  0  0  0  0  0
    0.6011    1.2344   -0.4623 C   0  0  0  0  0  0  0  0  0  0  0  0
    0.8817    2.2840   -0.3045 H   0  0  0  0  0  0  0  0  0  0  0  0
    1.7273    0.3452    0.0873 C   0  0  0  0  0  0  0  0  0  0  0  0
    2.5890    0.4197   -0.5906 H   0  0  0  0  0  0  0  0  0  0  0  0
    1.2649   -1.1257    0.1082 C   0  0  0  0  0  0  0  0  0  0  0  0
    2.0104   -1.7323    0.6456 H   0  0  0  0  0  0  0  0  0  0  0  0
    0.1015   -1.3090    0.8670 O   0  0  0  0  0  0  0  0  0  0  0  0
    1.1362   -1.5539   -1.2156 O   0  0  0  0  0  0  0  0  0  0  0  0
    2.0438    0.7950    1.3795 O   0  0  0  0  0  0  0  0  0  0  0  0
    0.4376    1.0770   -1.8466 O   0  0  0  0  0  0  0  0  0  0  0  0
   -0.6413    1.6894    1.5720 O   0  0  0  0  0  0  0  0  0  0  0  0
   -3.1019   -0.4680   -0.7354 O   0  0  0  0  0  0  0  0  0  0  0  0
   -1.9315   -2.1545   -0.4669 H   0  0  0  0  0  0  0  0  0  0  0  0
   -1.3354   -0.8819   -1.5649 H   0  0  0  0  0  0  0  0  0  0  0  0
    0.9965   -2.5122   -1.2519 H   0  0  0  0  0  0  0  0  0  0  0  0
    2.8301    0.3408    1.7155 H   0  0  0  0  0  0  0  0  0  0  0  0
    0.5625    0.1410   -2.0762 H   0  0  0  0  0  0  0  0  0  0  0  0
    0.1966    1.4675    2.0120 H   0  0  0  0  0  0  0  0  0  0  0  0
   -3.6290   -0.6531    0.0549 H   0  0  0  0  0  0  0  0  0  0  0  0
  1  2  1  0  0  0  0
  2  3  1  0  0  0  0
  2  4  1  0  0  0  0
  4  5  1  0  0  0  0
  4  6  1  0  0  0  0
  6  7  1  0  0  0  0
  6  8  1  0  0  0  0
  8  9  1  0  0  0  0
  8 10  1  0  0  0  0
 10 11  1  0  0  0  0
  2 12  1  0  0  0  0
 10 12  1  0  0  0  0
 10 13  1  0  0  0  0
  8 14  1  0  0  0  0
  6 15  1  0  0  0  0
  4 16  1  0  0  0  0
  1 17  1  0  0  0  0
  1 18  1  0  0  0  0
  1 19  1  0  0  0  0
 13 20  1  0  0  0  0
 14 21  1  0  0  0  0
 15 22  1  0  0  0  0
 16 23  1  0  0  0  0
 17 24  1  0  0  0  0
M  END
