 xtb: 6.7.1 (edcfbbe)
          04032521003D

 19 18  0     0  0            999 V2000
   -1.7463    1.0757   -0.0282 C   0  0  0  0  0  0  0  0  0  0  0  0
   -0.8870   -0.1540   -0.0409 C   0  0  0  0  0  0  0  0  0  0  0  0
   -1.3777   -1.2672   -0.0422 O   0  0  0  0  0  0  0  0  0  0  0  0
    0.6257    0.0479   -0.0091 C   0  0  0  0  0  0  0  0  0  0  0  0
    0.9996    0.1981    1.4755 C   0  0  0  0  0  0  0  0  0  0  0  0
    1.0713    1.2879   -0.7858 C   0  0  0  0  0  0  0  0  0  0  0  0
    1.3145   -1.1949   -0.5802 C   0  0  0  0  0  0  0  0  0  0  0  0
   -1.6713    1.5691   -0.9944 H   0  0  0  0  0  0  0  0  0  0  0  0
   -2.7813    0.7941    0.1468 H   0  0  0  0  0  0  0  0  0  0  0  0
   -1.4143    1.7714    0.7360 H   0  0  0  0  0  0  0  0  0  0  0  0
    0.5481    1.0882    1.9053 H   0  0  0  0  0  0  0  0  0  0  0  0
    0.6633   -0.6693    2.0397 H   0  0  0  0  0  0  0  0  0  0  0  0
    2.0794    0.2766    1.5710 H   0  0  0  0  0  0  0  0  0  0  0  0
    2.1572    1.3425   -0.7763 H   0  0  0  0  0  0  0  0  0  0  0  0
    0.6838    2.1997   -0.3427 H   0  0  0  0  0  0  0  0  0  0  0  0
    0.7443    1.2297   -1.8212 H   0  0  0  0  0  0  0  0  0  0  0  0
    0.9644   -2.0879   -0.0679 H   0  0  0  0  0  0  0  0  0  0  0  0
    2.3917   -1.1190   -0.4610 H   0  0  0  0  0  0  0  0  0  0  0  0
    1.0843   -1.3021   -1.6381 H   0  0  0  0  0  0  0  0  0  0  0  0
  1  2  1  0  0  0  0
  2  3  2  0  0  0  0
  2  4  1  0  0  0  0
  4  5  1  0  0  0  0
  4  6  1  0  0  0  0
  4  7  1  0  0  0  0
  1  8  1  0  0  0  0
  1  9  1  0  0  0  0
  1 10  1  0  0  0  0
  5 11  1  0  0  0  0
  5 12  1  0  0  0  0
  5 13  1  0  0  0  0
  6 14  1  0  0  0  0
  6 15  1  0  0  0  0
  6 16  1  0  0  0  0
  7 17  1  0  0  0  0
  7 18  1  0  0  0  0
  7 19  1  0  0  0  0
M  END
