 xtb: 6.7.1 (edcfbbe)
          04042520213D

 15 14  0     0  0            999 V2000
    2.0901    0.0837   -0.1275 C   0  0  0  0  0  0  0  0  0  0  0  0
    0.7591    0.6690    0.3347 C   0  0  0  0  0  0  0  0  0  0  0  0
   -0.4559    0.0035   -0.3263 C   0  0  0  0  0  0  0  0  0  0  0  0
   -0.3123    0.0011   -1.4201 H   0  0  0  0  0  0  0  0  0  0  0  0
   -1.7401    0.7597    0.0020 C   0  0  0  0  0  0  0  0  0  0  0  0
   -0.6391   -1.3325    0.1168 O   0  0  0  0  0  0  0  0  0  0  0  0
    2.1921   -0.9554    0.1772 H   0  0  0  0  0  0  0  0  0  0  0  0
    2.9134    0.6417    0.3108 H   0  0  0  0  0  0  0  0  0  0  0  0
    2.1755    0.1402   -1.2108 H   0  0  0  0  0  0  0  0  0  0  0  0
    0.7315    1.7326    0.0951 H   0  0  0  0  0  0  0  0  0  0  0  0
    0.6632    0.5615    1.4170 H   0  0  0  0  0  0  0  0  0  0  0  0
   -1.6931    1.7707   -0.3899 H   0  0  0  0  0  0  0  0  0  0  0  0
   -2.5890    0.2428   -0.4369 H   0  0  0  0  0  0  0  0  0  0  0  0
   -1.8782    0.7947    1.0794 H   0  0  0  0  0  0  0  0  0  0  0  0
    0.1571   -1.8428   -0.0799 H   0  0  0  0  0  0  0  0  0  0  0  0
  1  2  1  0  0  0  0
  2  3  1  0  0  0  0
  3  4  1  0  0  0  0
  3  5  1  0  0  0  0
  3  6  1  0  0  0  0
  1  7  1  0  0  0  0
  1  8  1  0  0  0  0
  1  9  1  0  0  0  0
  2 10  1  0  0  0  0
  2 11  1  0  0  0  0
  5 12  1  0  0  0  0
  5 13  1  0  0  0  0
  5 14  1  0  0  0  0
  6 15  1  0  0  0  0
M  END
