 xtb: 6.7.1 (edcfbbe)
          04032521513D

 17 17  0     0  0            999 V2000
    2.8863   -0.0734    0.0136 C   0  0  0  0  0  0  0  0  0  0  0  0
    1.3928    0.0045   -0.0056 C   0  0  0  0  0  0  0  0  0  0  0  0
    0.7140    1.2174   -0.0064 C   0  0  0  0  0  0  0  0  0  0  0  0
   -0.6698    1.2255   -0.0052 C   0  0  0  0  0  0  0  0  0  0  0  0
   -1.3565    0.0152   -0.0018 C   0  0  0  0  0  0  0  0  0  0  0  0
   -0.7108   -1.1489   -0.0055 N   0  0  0  0  0  0  0  0  0  0  0  0
    0.6097   -1.1459   -0.0078 C   0  0  0  0  0  0  0  0  0  0  0  0
   -2.8518   -0.0437    0.0111 C   0  0  0  0  0  0  0  0  0  0  0  0
    3.2307   -0.3423    1.0117 H   0  0  0  0  0  0  0  0  0  0  0  0
    3.2380   -0.8359   -0.6777 H   0  0  0  0  0  0  0  0  0  0  0  0
    3.3254    0.8834   -0.2560 H   0  0  0  0  0  0  0  0  0  0  0  0
    1.2649    2.1475   -0.0095 H   0  0  0  0  0  0  0  0  0  0  0  0
   -1.2136    2.1579   -0.0074 H   0  0  0  0  0  0  0  0  0  0  0  0
    1.0718   -2.1255   -0.0128 H   0  0  0  0  0  0  0  0  0  0  0  0
   -3.1925   -0.4953    0.9406 H   0  0  0  0  0  0  0  0  0  0  0  0
   -3.2786    0.9503   -0.0814 H   0  0  0  0  0  0  0  0  0  0  0  0
   -3.2040   -0.6695   -0.8053 H   0  0  0  0  0  0  0  0  0  0  0  0
  1  2  1  0  0  0  0
  2  3  4  0  0  0  0
  3  4  4  0  0  0  0
  4  5  4  0  0  0  0
  5  6  4  0  0  0  0
  2  7  4  0  0  0  0
  6  7  4  0  0  0  0
  5  8  1  0  0  0  0
  1  9  1  0  0  0  0
  1 10  1  0  0  0  0
  1 11  1  0  0  0  0
  3 12  1  0  0  0  0
  4 13  1  0  0  0  0
  7 14  1  0  0  0  0
  8 15  1  0  0  0  0
  8 16  1  0  0  0  0
  8 17  1  0  0  0  0
M  END
