 xtb: 6.7.1 (edcfbbe)
          04062518003D

 24 24  0     0  0            999 V2000
   -1.8821   -1.0079   -0.7536 C   0  0  0  0  0  0  0  0  0  0  0  0
   -1.2824   -0.1639    0.3862 C   0  0  0  0  0  0  0  0  0  0  0  0
   -2.0588   -0.0141    1.1434 H   0  0  0  0  0  0  0  0  0  0  0  0
   -0.7872    1.2135   -0.1248 C   0  0  0  0  0  0  0  0  0  0  0  0
   -0.9174    1.2602   -1.2132 H   0  0  0  0  0  0  0  0  0  0  0  0
    0.7067    1.3616    0.1937 C   0  0  0  0  0  0  0  0  0  0  0  0
    0.8549    1.4168    1.2793 H   0  0  0  0  0  0  0  0  0  0  0  0
    1.4400    0.1151   -0.3298 C   0  0  0  0  0  0  0  0  0  0  0  0
    1.2218   -0.0105   -1.4035 H   0  0  0  0  0  0  0  0  0  0  0  0
    0.9235   -1.1237    0.4334 C   0  0  0  0  0  0  0  0  0  0  0  0
    1.6424   -1.3555    1.2314 H   0  0  0  0  0  0  0  0  0  0  0  0
   -0.2721   -0.8679    1.1067 O   0  0  0  0  0  0  0  0  0  0  0  0
    0.7491   -2.2283   -0.4149 O   0  0  0  0  0  0  0  0  0  0  0  0
    2.8267    0.2134   -0.1341 O   0  0  0  0  0  0  0  0  0  0  0  0
    1.2787    2.5338   -0.3254 O   0  0  0  0  0  0  0  0  0  0  0  0
   -1.5545    2.2802    0.3636 O   0  0  0  0  0  0  0  0  0  0  0  0
   -2.3316   -2.2580   -0.3021 O   0  0  0  0  0  0  0  0  0  0  0  0
   -1.1409   -1.1371   -1.5522 H   0  0  0  0  0  0  0  0  0  0  0  0
   -2.7567   -0.4887   -1.1499 H   0  0  0  0  0  0  0  0  0  0  0  0
    1.5928   -2.6745   -0.5691 H   0  0  0  0  0  0  0  0  0  0  0  0
    3.0859    1.1412   -0.2648 H   0  0  0  0  0  0  0  0  0  0  0  0
    0.9264    2.7163   -1.2086 H   0  0  0  0  0  0  0  0  0  0  0  0
   -1.4356    2.3693    1.3203 H   0  0  0  0  0  0  0  0  0  0  0  0
   -1.5654   -2.7389    0.0472 H   0  0  0  0  0  0  0  0  0  0  0  0
  1  2  1  0  0  0  0
  2  3  1  0  0  0  0
  2  4  1  0  0  0  0
  4  5  1  0  0  0  0
  4  6  1  0  0  0  0
  6  7  1  0  0  0  0
  6  8  1  0  0  0  0
  8  9  1  0  0  0  0
  8 10  1  0  0  0  0
 10 11  1  0  0  0  0
  2 12  1  0  0  0  0
 10 12  1  0  0  0  0
 10 13  1  0  0  0  0
  8 14  1  0  0  0  0
  6 15  1  0  0  0  0
  4 16  1  0  0  0  0
  1 17  1  0  0  0  0
  1 18  1  0  0  0  0
  1 19  1  0  0  0  0
 13 20  1  0  0  0  0
 14 21  1  0  0  0  0
 15 22  1  0  0  0  0
 16 23  1  0  0  0  0
 17 24  1  0  0  0  0
M  END
