 xtb: 6.7.1 (edcfbbe)
          04062518003D

 24 24  0     0  0            999 V2000
   -2.4045   -0.7487   -0.0321 C   0  0  0  0  0  0  0  0  0  0  0  0
   -0.9944   -0.2874    0.3552 C   0  0  0  0  0  0  0  0  0  0  0  0
   -0.9968    0.0383    1.4075 H   0  0  0  0  0  0  0  0  0  0  0  0
   -0.5094    0.8691   -0.5284 C   0  0  0  0  0  0  0  0  0  0  0  0
   -0.4128    0.5179   -1.5613 H   0  0  0  0  0  0  0  0  0  0  0  0
    0.8701    1.3349   -0.0308 C   0  0  0  0  0  0  0  0  0  0  0  0
    0.7193    1.9779    0.8538 H   0  0  0  0  0  0  0  0  0  0  0  0
    1.7280    0.1503    0.4453 C   0  0  0  0  0  0  0  0  0  0  0  0
    2.7401    0.3056    0.0498 H   0  0  0  0  0  0  0  0  0  0  0  0
    1.1996   -1.1785   -0.1196 C   0  0  0  0  0  0  0  0  0  0  0  0
    1.7584   -2.0145    0.3318 H   0  0  0  0  0  0  0  0  0  0  0  0
   -0.1347   -1.4235    0.2434 O   0  0  0  0  0  0  0  0  0  0  0  0
    1.3765   -1.1625   -1.5008 O   0  0  0  0  0  0  0  0  0  0  0  0
    1.7064    0.1451    1.8497 O   0  0  0  0  0  0  0  0  0  0  0  0
    1.5812    2.0338   -1.0189 O   0  0  0  0  0  0  0  0  0  0  0  0
   -1.4225    1.9343   -0.5727 O   0  0  0  0  0  0  0  0  0  0  0  0
   -2.9592   -1.6207    0.9181 O   0  0  0  0  0  0  0  0  0  0  0  0
   -2.3604   -1.2243   -1.0198 H   0  0  0  0  0  0  0  0  0  0  0  0
   -3.0680    0.1157   -0.0851 H   0  0  0  0  0  0  0  0  0  0  0  0
    1.1500   -2.0277   -1.8762 H   0  0  0  0  0  0  0  0  0  0  0  0
    2.3633   -0.4768    2.1945 H   0  0  0  0  0  0  0  0  0  0  0  0
    0.9949    2.6940   -1.4186 H   0  0  0  0  0  0  0  0  0  0  0  0
   -1.5522    2.2911    0.3190 H   0  0  0  0  0  0  0  0  0  0  0  0
   -2.3630   -2.3757    1.0254 H   0  0  0  0  0  0  0  0  0  0  0  0
  1  2  1  0  0  0  0
  2  3  1  0  0  0  0
  2  4  1  0  0  0  0
  4  5  1  0  0  0  0
  4  6  1  0  0  0  0
  6  7  1  0  0  0  0
  6  8  1  0  0  0  0
  8  9  1  0  0  0  0
  8 10  1  0  0  0  0
 10 11  1  0  0  0  0
  2 12  1  0  0  0  0
 10 12  1  0  0  0  0
 10 13  1  0  0  0  0
  8 14  1  0  0  0  0
  6 15  1  0  0  0  0
  4 16  1  0  0  0  0
  1 17  1  0  0  0  0
  1 18  1  0  0  0  0
  1 19  1  0  0  0  0
 13 20  1  0  0  0  0
 14 21  1  0  0  0  0
 15 22  1  0  0  0  0
 16 23  1  0  0  0  0
 17 24  1  0  0  0  0
M  END
