 xtb: 6.7.1 (edcfbbe)
          04032521403D

  9  9  0     0  0            999 V2000
   -0.6437    0.9711    0.0000 C   0  0  0  0  0  0  0  0  0  0  0  0
    0.7195    0.9063    0.0000 C   0  0  0  0  0  0  0  0  0  0  0  0
    1.1262   -0.3935    0.0000 N   0  0  0  0  0  0  0  0  0  0  0  0
    0.0274   -1.1009    0.0000 C   0  0  0  0  0  0  0  0  0  0  0  0
   -1.0768   -0.3231    0.0000 N   0  0  0  0  0  0  0  0  0  0  0  0
   -1.3141    1.8042   -0.0001 H   0  0  0  0  0  0  0  0  0  0  0  0
    1.4353    1.7034   -0.0001 H   0  0  0  0  0  0  0  0  0  0  0  0
   -0.0018   -2.1714   -0.0001 H   0  0  0  0  0  0  0  0  0  0  0  0
   -2.0360   -0.6303   -0.0001 H   0  0  0  0  0  0  0  0  0  0  0  0
  1  2  2  0  0  0  0
  2  3  4  0  0  0  0
  3  4  2  0  0  0  0
  1  5  4  0  0  0  0
  4  5  4  0  0  0  0
  1  6  1  0  0  0  0
  2  7  1  0  0  0  0
  4  8  1  0  0  0  0
  5  9  1  0  0  0  0
M  END
