 xtb: 6.7.1 (edcfbbe)
          04052508533D

 22 23  0     0  0            999 V2000
   -1.5053   -0.8350    0.7343 C   0  0  0  0  0  0  0  0  0  0  0  0
   -0.8041    0.1742    0.0822 C   0  0  0  0  0  0  0  0  0  0  0  0
   -1.5010    1.1897   -0.5657 C   0  0  0  0  0  0  0  0  0  0  0  0
   -2.8852    1.1813   -0.5778 C   0  0  0  0  0  0  0  0  0  0  0  0
   -3.5965    0.1694    0.0634 C   0  0  0  0  0  0  0  0  0  0  0  0
   -2.8894   -0.8330    0.7237 C   0  0  0  0  0  0  0  0  0  0  0  0
   -3.7524   -2.0879    1.5360 Cl  0  0  0  0  0  0  0  0  0  0  0  0
   -5.3219    0.1590    0.0430 Cl  0  0  0  0  0  0  0  0  0  0  0  0
   -3.7433    2.4342   -1.3966 Cl  0  0  0  0  0  0  0  0  0  0  0  0
    0.6715    0.1919    0.0851 C   0  0  0  0  0  0  0  0  0  0  0  0
    1.3406    1.3433    0.4880 C   0  0  0  0  0  0  0  0  0  0  0  0
    2.7239    1.3920    0.5081 C   0  0  0  0  0  0  0  0  0  0  0  0
    3.4730    0.2849    0.1140 C   0  0  0  0  0  0  0  0  0  0  0  0
    2.8136   -0.8680   -0.3069 C   0  0  0  0  0  0  0  0  0  0  0  0
    1.4207   -0.9155   -0.3200 C   0  0  0  0  0  0  0  0  0  0  0  0
    0.6491   -2.3418   -0.9011 Cl  0  0  0  0  0  0  0  0  0  0  0  0
    3.7303   -2.2331   -0.8161 Cl  0  0  0  0  0  0  0  0  0  0  0  0
    5.1926    0.3346    0.1366 Cl  0  0  0  0  0  0  0  0  0  0  0  0
    3.5292    2.8234    1.0216 Cl  0  0  0  0  0  0  0  0  0  0  0  0
   -0.9835   -1.6131    1.2654 H   0  0  0  0  0  0  0  0  0  0  0  0
   -0.9708    1.9750   -1.0781 H   0  0  0  0  0  0  0  0  0  0  0  0
    0.7746    2.2031    0.8062 H   0  0  0  0  0  0  0  0  0  0  0  0
  1  2  4  0  0  0  0
  2  3  4  0  0  0  0
  3  4  4  0  0  0  0
  4  5  4  0  0  0  0
  1  6  4  0  0  0  0
  5  6  4  0  0  0  0
  6  7  1  0  0  0  0
  5  8  1  0  0  0  0
  4  9  1  0  0  0  0
  2 10  1  0  0  0  0
 10 11  4  0  0  0  0
 11 12  4  0  0  0  0
 12 13  4  0  0  0  0
 13 14  4  0  0  0  0
 10 15  4  0  0  0  0
 14 15  4  0  0  0  0
 15 16  1  0  0  0  0
 14 17  1  0  0  0  0
 13 18  1  0  0  0  0
 12 19  1  0  0  0  0
  1 20  1  0  0  0  0
  3 21  1  0  0  0  0
 11 22  1  0  0  0  0
M  END
