 xtb: 6.7.1 (edcfbbe)
          04062518003D

 24 24  0     0  0            999 V2000
   -2.0491   -1.3928   -0.1668 C   0  0  0  0  0  0  0  0  0  0  0  0
   -1.0360   -0.4829    0.5438 C   0  0  0  0  0  0  0  0  0  0  0  0
   -1.5172   -0.1244    1.4624 H   0  0  0  0  0  0  0  0  0  0  0  0
   -0.6235    0.7299   -0.3120 C   0  0  0  0  0  0  0  0  0  0  0  0
   -0.4815    0.4132   -1.3524 H   0  0  0  0  0  0  0  0  0  0  0  0
    0.7229    1.2487    0.2364 C   0  0  0  0  0  0  0  0  0  0  0  0
    0.6507    1.3513    1.3270 H   0  0  0  0  0  0  0  0  0  0  0  0
    1.7954    0.1982   -0.0982 C   0  0  0  0  0  0  0  0  0  0  0  0
    2.0669    0.2764   -1.1566 H   0  0  0  0  0  0  0  0  0  0  0  0
    1.2103   -1.2228    0.1177 C   0  0  0  0  0  0  0  0  0  0  0  0
    1.9589   -1.8257    0.6500 H   0  0  0  0  0  0  0  0  0  0  0  0
    0.1002   -1.2230    0.9854 O   0  0  0  0  0  0  0  0  0  0  0  0
    0.9089   -1.7643   -1.1290 O   0  0  0  0  0  0  0  0  0  0  0  0
    2.9921    0.3856    0.6064 O   0  0  0  0  0  0  0  0  0  0  0  0
    1.0464    2.5312   -0.2235 O   0  0  0  0  0  0  0  0  0  0  0  0
   -1.6055    1.7231   -0.3675 O   0  0  0  0  0  0  0  0  0  0  0  0
   -3.3182   -0.7926   -0.0664 O   0  0  0  0  0  0  0  0  0  0  0  0
   -2.0396   -2.3656    0.3445 H   0  0  0  0  0  0  0  0  0  0  0  0
   -1.7525   -1.5286   -1.2131 H   0  0  0  0  0  0  0  0  0  0  0  0
    0.7914   -2.7242   -1.0634 H   0  0  0  0  0  0  0  0  0  0  0  0
    2.8101    0.5002    1.5506 H   0  0  0  0  0  0  0  0  0  0  0  0
    1.0184    2.5541   -1.1904 H   0  0  0  0  0  0  0  0  0  0  0  0
   -1.7599    2.0918    0.5138 H   0  0  0  0  0  0  0  0  0  0  0  0
   -3.9511   -1.2859   -0.6060 H   0  0  0  0  0  0  0  0  0  0  0  0
  1  2  1  0  0  0  0
  2  3  1  0  0  0  0
  2  4  1  0  0  0  0
  4  5  1  0  0  0  0
  4  6  1  0  0  0  0
  6  7  1  0  0  0  0
  6  8  1  0  0  0  0
  8  9  1  0  0  0  0
  8 10  1  0  0  0  0
 10 11  1  0  0  0  0
  2 12  1  0  0  0  0
 10 12  1  0  0  0  0
 10 13  1  0  0  0  0
  8 14  1  0  0  0  0
  6 15  1  0  0  0  0
  4 16  1  0  0  0  0
  1 17  1  0  0  0  0
  1 18  1  0  0  0  0
  1 19  1  0  0  0  0
 13 20  1  0  0  0  0
 14 21  1  0  0  0  0
 15 22  1  0  0  0  0
 16 23  1  0  0  0  0
 17 24  1  0  0  0  0
M  END
