 xtb: 6.7.1 (edcfbbe)
          04062501173D

 23 22  0     0  0            999 V2000
   -2.4700   -0.4926   -0.5682 C   0  0  0  0  0  0  0  0  0  0  0  0
   -1.7548    0.1945    0.5904 C   0  0  0  0  0  0  0  0  0  0  0  0
   -0.4452    0.9027    0.2247 C   0  0  0  0  0  0  0  0  0  0  0  0
    0.8279    0.0589    0.0056 C   0  0  0  0  0  0  0  0  0  0  0  0
    0.7872   -0.7251   -1.3084 C   0  0  0  0  0  0  0  0  0  0  0  0
    2.0085    1.0381   -0.0620 C   0  0  0  0  0  0  0  0  0  0  0  0
    1.0616   -0.9076    1.1688 C   0  0  0  0  0  0  0  0  0  0  0  0
   -3.4777   -0.7715   -0.2668 H   0  0  0  0  0  0  0  0  0  0  0  0
   -2.5423    0.1766   -1.4224 H   0  0  0  0  0  0  0  0  0  0  0  0
   -1.9554   -1.3951   -0.8820 H   0  0  0  0  0  0  0  0  0  0  0  0
   -2.4268    0.9604    0.9878 H   0  0  0  0  0  0  0  0  0  0  0  0
   -1.5818   -0.5238    1.3920 H   0  0  0  0  0  0  0  0  0  0  0  0
   -0.2253    1.5990    1.0389 H   0  0  0  0  0  0  0  0  0  0  0  0
   -0.6169    1.5034   -0.6724 H   0  0  0  0  0  0  0  0  0  0  0  0
    1.7667   -1.1510   -1.5165 H   0  0  0  0  0  0  0  0  0  0  0  0
    0.0742   -1.5417   -1.2608 H   0  0  0  0  0  0  0  0  0  0  0  0
    0.5151   -0.0749   -2.1364 H   0  0  0  0  0  0  0  0  0  0  0  0
    2.1068    1.5889    0.8708 H   0  0  0  0  0  0  0  0  0  0  0  0
    1.8652    1.7539   -0.8685 H   0  0  0  0  0  0  0  0  0  0  0  0
    2.9386    0.5034   -0.2408 H   0  0  0  0  0  0  0  0  0  0  0  0
    2.0356   -1.3816    1.0687 H   0  0  0  0  0  0  0  0  0  0  0  0
    1.0342   -0.3778    2.1185 H   0  0  0  0  0  0  0  0  0  0  0  0
    0.3084   -1.6909    1.1852 H   0  0  0  0  0  0  0  0  0  0  0  0
  1  2  1  0  0  0  0
  2  3  1  0  0  0  0
  3  4  1  0  0  0  0
  4  5  1  0  0  0  0
  4  6  1  0  0  0  0
  4  7  1  0  0  0  0
  1  8  1  0  0  0  0
  1  9  1  0  0  0  0
  1 10  1  0  0  0  0
  2 11  1  0  0  0  0
  2 12  1  0  0  0  0
  3 13  1  0  0  0  0
  3 14  1  0  0  0  0
  5 15  1  0  0  0  0
  5 16  1  0  0  0  0
  5 17  1  0  0  0  0
  6 18  1  0  0  0  0
  6 19  1  0  0  0  0
  6 20  1  0  0  0  0
  7 21  1  0  0  0  0
  7 22  1  0  0  0  0
  7 23  1  0  0  0  0
M  END
