 xtb: 6.7.1 (edcfbbe)
          04062518003D

 24 24  0     0  0            999 V2000
   -2.5444   -0.6738   -0.3609 C   0  0  0  0  0  0  0  0  0  0  0  0
   -1.1632   -0.3268    0.2107 C   0  0  0  0  0  0  0  0  0  0  0  0
   -1.2089   -0.3032    1.3123 H   0  0  0  0  0  0  0  0  0  0  0  0
   -0.7018    1.0590   -0.2968 C   0  0  0  0  0  0  0  0  0  0  0  0
   -0.7174    1.0627   -1.3921 H   0  0  0  0  0  0  0  0  0  0  0  0
    0.7349    1.3272    0.1719 C   0  0  0  0  0  0  0  0  0  0  0  0
    0.7480    1.4087    1.2731 H   0  0  0  0  0  0  0  0  0  0  0  0
    1.6418    0.1544   -0.2192 C   0  0  0  0  0  0  0  0  0  0  0  0
    1.7012    0.1029   -1.3174 H   0  0  0  0  0  0  0  0  0  0  0  0
    1.0408   -1.1653    0.3069 C   0  0  0  0  0  0  0  0  0  0  0  0
    1.0422   -1.1355    1.4121 H   0  0  0  0  0  0  0  0  0  0  0  0
   -0.2591   -1.3401   -0.1884 O   0  0  0  0  0  0  0  0  0  0  0  0
    1.8080   -2.2544   -0.0698 O   0  0  0  0  0  0  0  0  0  0  0  0
    2.9126    0.3884    0.3350 O   0  0  0  0  0  0  0  0  0  0  0  0
    1.1786    2.5303   -0.3998 O   0  0  0  0  0  0  0  0  0  0  0  0
   -1.5952    2.0637    0.0958 O   0  0  0  0  0  0  0  0  0  0  0  0
   -3.1867   -1.7236    0.3120 O   0  0  0  0  0  0  0  0  0  0  0  0
   -2.4128   -1.0147   -1.3892 H   0  0  0  0  0  0  0  0  0  0  0  0
   -3.1530    0.2377   -0.3563 H   0  0  0  0  0  0  0  0  0  0  0  0
    1.4684   -2.6015   -0.9096 H   0  0  0  0  0  0  0  0  0  0  0  0
    3.4543   -0.4083    0.2298 H   0  0  0  0  0  0  0  0  0  0  0  0
    2.1201    2.6372   -0.1952 H   0  0  0  0  0  0  0  0  0  0  0  0
   -1.4254    2.3242    1.0130 H   0  0  0  0  0  0  0  0  0  0  0  0
   -3.4173   -1.4457    1.2100 H   0  0  0  0  0  0  0  0  0  0  0  0
  1  2  1  0  0  0  0
  2  3  1  0  0  0  0
  2  4  1  0  0  0  0
  4  5  1  0  0  0  0
  4  6  1  0  0  0  0
  6  7  1  0  0  0  0
  6  8  1  0  0  0  0
  8  9  1  0  0  0  0
  8 10  1  0  0  0  0
 10 11  1  0  0  0  0
  2 12  1  0  0  0  0
 10 12  1  0  0  0  0
 10 13  1  0  0  0  0
  8 14  1  0  0  0  0
  6 15  1  0  0  0  0
  4 16  1  0  0  0  0
  1 17  1  0  0  0  0
  1 18  1  0  0  0  0
  1 19  1  0  0  0  0
 13 20  1  0  0  0  0
 14 21  1  0  0  0  0
 15 22  1  0  0  0  0
 16 23  1  0  0  0  0
 17 24  1  0  0  0  0
M  END
