 xtb: 6.7.1 (edcfbbe)
          04042521533D

 17 17  0     0  0            999 V2000
   -3.1867   -0.3082    0.0003 C   0  0  0  0  0  0  0  0  0  0  0  0
   -2.0856    0.5808   -0.0002 O   0  0  0  0  0  0  0  0  0  0  0  0
   -0.8245    0.0589   -0.0002 C   0  0  0  0  0  0  0  0  0  0  0  0
   -0.5253   -1.2995   -0.0003 C   0  0  0  0  0  0  0  0  0  0  0  0
    0.7998   -1.7011   -0.0002 C   0  0  0  0  0  0  0  0  0  0  0  0
    1.8298   -0.7814    0.0000 C   0  0  0  0  0  0  0  0  0  0  0  0
    1.5309    0.5784    0.0001 C   0  0  0  0  0  0  0  0  0  0  0  0
    0.2077    0.9927    0.0001 C   0  0  0  0  0  0  0  0  0  0  0  0
    2.4961    1.5358    0.0002 O   0  0  0  0  0  0  0  0  0  0  0  0
   -3.1870   -0.9360    0.8951 H   0  0  0  0  0  0  0  0  0  0  0  0
   -3.1874   -0.9365   -0.8942 H   0  0  0  0  0  0  0  0  0  0  0  0
   -4.0679    0.3293    0.0003 H   0  0  0  0  0  0  0  0  0  0  0  0
   -1.3043   -2.0433   -0.0004 H   0  0  0  0  0  0  0  0  0  0  0  0
    1.0295   -2.7556   -0.0003 H   0  0  0  0  0  0  0  0  0  0  0  0
    2.8566   -1.1139    0.0001 H   0  0  0  0  0  0  0  0  0  0  0  0
   -0.0266    2.0446    0.0002 H   0  0  0  0  0  0  0  0  0  0  0  0
    3.3764    1.1295    0.0012 H   0  0  0  0  0  0  0  0  0  0  0  0
  1  2  1  0  0  0  0
  2  3  1  0  0  0  0
  3  4  4  0  0  0  0
  4  5  4  0  0  0  0
  5  6  4  0  0  0  0
  6  7  4  0  0  0  0
  3  8  4  0  0  0  0
  7  8  4  0  0  0  0
  7  9  1  0  0  0  0
  1 10  1  0  0  0  0
  1 11  1  0  0  0  0
  1 12  1  0  0  0  0
  4 13  1  0  0  0  0
  5 14  1  0  0  0  0
  6 15  1  0  0  0  0
  8 16  1  0  0  0  0
  9 17  1  0  0  0  0
M  END
