 xtb: 6.7.1 (edcfbbe)
          04032521003D

 25 25  0     0  0            999 V2000
   -2.4516   -0.7322   -1.2577 C   0  0  0  0  0  0  0  0  0  0  0  0
   -1.9660    0.0031   -0.0001 C   0  0  0  0  0  0  0  0  0  0  0  0
   -2.5841    1.4042    0.0017 C   0  0  0  0  0  0  0  0  0  0  0  0
   -2.4538   -0.7362    1.2543 C   0  0  0  0  0  0  0  0  0  0  0  0
   -0.4452    0.0341    0.0007 C   0  0  0  0  0  0  0  0  0  0  0  0
    0.2678   -1.1635    0.0007 C   0  0  0  0  0  0  0  0  0  0  0  0
    1.6466   -1.1897    0.0004 C   0  0  0  0  0  0  0  0  0  0  0  0
    2.3673    0.0001    0.0001 C   0  0  0  0  0  0  0  0  0  0  0  0
    1.6749    1.2016    0.0004 C   0  0  0  0  0  0  0  0  0  0  0  0
    0.2901    1.2117    0.0007 C   0  0  0  0  0  0  0  0  0  0  0  0
    3.7291   -0.0666   -0.0006 O   0  0  0  0  0  0  0  0  0  0  0  0
   -2.0923   -1.7570   -1.2799 H   0  0  0  0  0  0  0  0  0  0  0  0
   -3.5387   -0.7506   -1.2837 H   0  0  0  0  0  0  0  0  0  0  0  0
   -2.0921   -0.2254   -2.1507 H   0  0  0  0  0  0  0  0  0  0  0  0
   -2.2897    1.9620   -0.8839 H   0  0  0  0  0  0  0  0  0  0  0  0
   -3.6687    1.3202    0.0013 H   0  0  0  0  0  0  0  0  0  0  0  0
   -2.2902    1.9594    0.8892 H   0  0  0  0  0  0  0  0  0  0  0  0
   -3.5410   -0.7545    1.2783 H   0  0  0  0  0  0  0  0  0  0  0  0
   -2.0947   -1.7611    1.2739 H   0  0  0  0  0  0  0  0  0  0  0  0
   -2.0958   -0.2323    2.1496 H   0  0  0  0  0  0  0  0  0  0  0  0
   -0.2572   -2.1064    0.0007 H   0  0  0  0  0  0  0  0  0  0  0  0
    2.1867   -2.1238    0.0003 H   0  0  0  0  0  0  0  0  0  0  0  0
    2.2151    2.1379    0.0004 H   0  0  0  0  0  0  0  0  0  0  0  0
   -0.2044    2.1688    0.0009 H   0  0  0  0  0  0  0  0  0  0  0  0
    4.1101    0.8242   -0.0011 H   0  0  0  0  0  0  0  0  0  0  0  0
  1  2  1  0  0  0  0
  2  3  1  0  0  0  0
  2  4  1  0  0  0  0
  2  5  1  0  0  0  0
  5  6  4  0  0  0  0
  6  7  4  0  0  0  0
  7  8  4  0  0  0  0
  8  9  4  0  0  0  0
  5 10  4  0  0  0  0
  9 10  4  0  0  0  0
  8 11  1  0  0  0  0
  1 12  1  0  0  0  0
  1 13  1  0  0  0  0
  1 14  1  0  0  0  0
  3 15  1  0  0  0  0
  3 16  1  0  0  0  0
  3 17  1  0  0  0  0
  4 18  1  0  0  0  0
  4 19  1  0  0  0  0
  4 20  1  0  0  0  0
  6 21  1  0  0  0  0
  7 22  1  0  0  0  0
  9 23  1  0  0  0  0
 10 24  1  0  0  0  0
 11 25  1  0  0  0  0
M  END
