 xtb: 6.7.1 (edcfbbe)
          04062518003D

 24 24  0     0  0            999 V2000
   -2.4692   -0.5112   -0.1591 C   0  0  0  0  0  0  0  0  0  0  0  0
   -1.0301   -0.1990    0.2595 C   0  0  0  0  0  0  0  0  0  0  0  0
   -0.9417   -0.3195    1.3496 H   0  0  0  0  0  0  0  0  0  0  0  0
   -0.6265    1.2418   -0.1191 C   0  0  0  0  0  0  0  0  0  0  0  0
   -1.1805    1.5478   -1.0134 H   0  0  0  0  0  0  0  0  0  0  0  0
    0.8887    1.2992   -0.4297 C   0  0  0  0  0  0  0  0  0  0  0  0
    1.2423    2.3078   -0.1701 H   0  0  0  0  0  0  0  0  0  0  0  0
    1.6229    0.2806    0.4517 C   0  0  0  0  0  0  0  0  0  0  0  0
    2.6957    0.3270    0.2265 H   0  0  0  0  0  0  0  0  0  0  0  0
    1.1438   -1.1434    0.0662 C   0  0  0  0  0  0  0  0  0  0  0  0
    1.2360   -1.8052    0.9447 H   0  0  0  0  0  0  0  0  0  0  0  0
   -0.1939   -1.1481   -0.3857 O   0  0  0  0  0  0  0  0  0  0  0  0
    1.9326   -1.6995   -0.9211 O   0  0  0  0  0  0  0  0  0  0  0  0
    1.3613    0.6028    1.7947 O   0  0  0  0  0  0  0  0  0  0  0  0
    1.1942    0.9833   -1.7632 O   0  0  0  0  0  0  0  0  0  0  0  0
   -0.9835    2.1615    0.8764 O   0  0  0  0  0  0  0  0  0  0  0  0
   -2.9099   -1.7521    0.3275 O   0  0  0  0  0  0  0  0  0  0  0  0
   -2.5299   -0.4817   -1.2542 H   0  0  0  0  0  0  0  0  0  0  0  0
   -3.1328    0.2445    0.2646 H   0  0  0  0  0  0  0  0  0  0  0  0
    1.8164   -1.1771   -1.7340 H   0  0  0  0  0  0  0  0  0  0  0  0
    2.0041    0.1708    2.3742 H   0  0  0  0  0  0  0  0  0  0  0  0
    0.8259    1.6547   -2.3546 H   0  0  0  0  0  0  0  0  0  0  0  0
   -0.4786    1.9617    1.6808 H   0  0  0  0  0  0  0  0  0  0  0  0
   -2.3129   -2.4368   -0.0082 H   0  0  0  0  0  0  0  0  0  0  0  0
  1  2  1  0  0  0  0
  2  3  1  0  0  0  0
  2  4  1  0  0  0  0
  4  5  1  0  0  0  0
  4  6  1  0  0  0  0
  6  7  1  0  0  0  0
  6  8  1  0  0  0  0
  8  9  1  0  0  0  0
  8 10  1  0  0  0  0
 10 11  1  0  0  0  0
  2 12  1  0  0  0  0
 10 12  1  0  0  0  0
 10 13  1  0  0  0  0
  8 14  1  0  0  0  0
  6 15  1  0  0  0  0
  4 16  1  0  0  0  0
  1 17  1  0  0  0  0
  1 18  1  0  0  0  0
  1 19  1  0  0  0  0
 13 20  1  0  0  0  0
 14 21  1  0  0  0  0
 15 22  1  0  0  0  0
 16 23  1  0  0  0  0
 17 24  1  0  0  0  0
M  END
