 xtb: 6.7.1 (edcfbbe)
          04062518003D

 24 24  0     0  0            999 V2000
   -2.5529   -0.6717   -0.3705 C   0  0  0  0  0  0  0  0  0  0  0  0
   -1.1729   -0.3139    0.1754 C   0  0  0  0  0  0  0  0  0  0  0  0
   -1.2357   -0.2689    1.2738 H   0  0  0  0  0  0  0  0  0  0  0  0
   -0.6916    1.0463   -0.3487 C   0  0  0  0  0  0  0  0  0  0  0  0
   -0.6541    1.0096   -1.4490 H   0  0  0  0  0  0  0  0  0  0  0  0
    0.7271    1.3186    0.1677 C   0  0  0  0  0  0  0  0  0  0  0  0
    0.6942    1.4211    1.2645 H   0  0  0  0  0  0  0  0  0  0  0  0
    1.6498    0.1463   -0.1760 C   0  0  0  0  0  0  0  0  0  0  0  0
    1.7529    0.0740   -1.2692 H   0  0  0  0  0  0  0  0  0  0  0  0
    1.0190   -1.1647    0.3221 C   0  0  0  0  0  0  0  0  0  0  0  0
    0.9602   -1.1311    1.4319 H   0  0  0  0  0  0  0  0  0  0  0  0
   -0.2719   -1.3336   -0.2083 O   0  0  0  0  0  0  0  0  0  0  0  0
    1.8110   -2.2130   -0.1044 O   0  0  0  0  0  0  0  0  0  0  0  0
    2.8941    0.3850    0.4293 O   0  0  0  0  0  0  0  0  0  0  0  0
    1.1697    2.5192   -0.4150 O   0  0  0  0  0  0  0  0  0  0  0  0
   -1.5875    2.0365    0.0778 O   0  0  0  0  0  0  0  0  0  0  0  0
   -3.0994   -1.6982    0.4238 O   0  0  0  0  0  0  0  0  0  0  0  0
   -2.4339   -0.9989   -1.4097 H   0  0  0  0  0  0  0  0  0  0  0  0
   -3.1716    0.2317   -0.3275 H   0  0  0  0  0  0  0  0  0  0  0  0
    1.3185   -3.0447   -0.0224 H   0  0  0  0  0  0  0  0  0  0  0  0
    3.4734   -0.3746    0.2689 H   0  0  0  0  0  0  0  0  0  0  0  0
    2.0966    2.6575   -0.1696 H   0  0  0  0  0  0  0  0  0  0  0  0
   -1.2068    2.9016   -0.1418 H   0  0  0  0  0  0  0  0  0  0  0  0
   -3.9629   -1.9494    0.0658 H   0  0  0  0  0  0  0  0  0  0  0  0
  1  2  1  0  0  0  0
  2  3  1  0  0  0  0
  2  4  1  0  0  0  0
  4  5  1  0  0  0  0
  4  6  1  0  0  0  0
  6  7  1  0  0  0  0
  6  8  1  0  0  0  0
  8  9  1  0  0  0  0
  8 10  1  0  0  0  0
 10 11  1  0  0  0  0
  2 12  1  0  0  0  0
 10 12  1  0  0  0  0
 10 13  1  0  0  0  0
  8 14  1  0  0  0  0
  6 15  1  0  0  0  0
  4 16  1  0  0  0  0
  1 17  1  0  0  0  0
  1 18  1  0  0  0  0
  1 19  1  0  0  0  0
 13 20  1  0  0  0  0
 14 21  1  0  0  0  0
 15 22  1  0  0  0  0
 16 23  1  0  0  0  0
 17 24  1  0  0  0  0
M  END
