 xtb: 6.7.1 (edcfbbe)
          04042517583D

 13 12  0     0  0            999 V2000
   -1.5924   -0.1455   -0.5048 C   0  0  0  0  0  0  0  0  0  0  0  0
   -0.6713    0.4921    0.5301 C   0  0  0  0  0  0  0  0  0  0  0  0
    0.6884   -0.2179    0.6342 C   0  0  0  0  0  0  0  0  0  0  0  0
    1.5377   -0.1314   -0.5436 N   0  0  0  0  0  0  0  0  0  0  0  0
   -2.5567    0.3567   -0.5132 H   0  0  0  0  0  0  0  0  0  0  0  0
   -1.1679   -0.0738   -1.5043 H   0  0  0  0  0  0  0  0  0  0  0  0
   -1.7526   -1.1963   -0.2729 H   0  0  0  0  0  0  0  0  0  0  0  0
   -1.1508    0.4580    1.5099 H   0  0  0  0  0  0  0  0  0  0  0  0
   -0.5069    1.5427    0.2760 H   0  0  0  0  0  0  0  0  0  0  0  0
    1.2498    0.2113    1.4693 H   0  0  0  0  0  0  0  0  0  0  0  0
    0.5281   -1.2786    0.8460 H   0  0  0  0  0  0  0  0  0  0  0  0
    1.6865    0.8435   -0.7831 H   0  0  0  0  0  0  0  0  0  0  0  0
    1.0741   -0.5698   -1.3321 H   0  0  0  0  0  0  0  0  0  0  0  0
  1  2  1  0  0  0  0
  2  3  1  0  0  0  0
  3  4  1  0  0  0  0
  1  5  1  0  0  0  0
  1  6  1  0  0  0  0
  1  7  1  0  0  0  0
  2  8  1  0  0  0  0
  2  9  1  0  0  0  0
  3 10  1  0  0  0  0
  3 11  1  0  0  0  0
  4 12  1  0  0  0  0
  4 13  1  0  0  0  0
M  END
