 xtb: 6.7.1 (edcfbbe)
          04062518003D

 24 24  0     0  0            999 V2000
   -2.5401   -0.7004   -0.3855 C   0  0  0  0  0  0  0  0  0  0  0  0
   -1.1629   -0.3367    0.1653 C   0  0  0  0  0  0  0  0  0  0  0  0
   -1.2245   -0.3168    1.2659 H   0  0  0  0  0  0  0  0  0  0  0  0
   -0.6971    1.0439   -0.3459 C   0  0  0  0  0  0  0  0  0  0  0  0
   -0.6727    1.0310   -1.4407 H   0  0  0  0  0  0  0  0  0  0  0  0
    0.7212    1.3213    0.1714 C   0  0  0  0  0  0  0  0  0  0  0  0
    0.6929    1.4131    1.2713 H   0  0  0  0  0  0  0  0  0  0  0  0
    1.6509    0.1513   -0.1740 C   0  0  0  0  0  0  0  0  0  0  0  0
    1.7634    0.0912   -1.2666 H   0  0  0  0  0  0  0  0  0  0  0  0
    1.0339   -1.1723    0.3054 C   0  0  0  0  0  0  0  0  0  0  0  0
    0.9744   -1.1565    1.4160 H   0  0  0  0  0  0  0  0  0  0  0  0
   -0.2540   -1.3463   -0.2286 O   0  0  0  0  0  0  0  0  0  0  0  0
    1.8377   -2.2059   -0.1343 O   0  0  0  0  0  0  0  0  0  0  0  0
    2.8876    0.3967    0.4454 O   0  0  0  0  0  0  0  0  0  0  0  0
    1.1836    2.5191   -0.3958 O   0  0  0  0  0  0  0  0  0  0  0  0
   -1.6042    2.0534   -0.0035 O   0  0  0  0  0  0  0  0  0  0  0  0
   -3.1425   -1.6330    0.4824 O   0  0  0  0  0  0  0  0  0  0  0  0
   -2.4024   -1.1225   -1.3869 H   0  0  0  0  0  0  0  0  0  0  0  0
   -3.1348    0.2189   -0.4478 H   0  0  0  0  0  0  0  0  0  0  0  0
    1.3530   -3.0436   -0.0697 H   0  0  0  0  0  0  0  0  0  0  0  0
    3.4830   -0.3461    0.2665 H   0  0  0  0  0  0  0  0  0  0  0  0
    2.1134    2.6357   -0.1473 H   0  0  0  0  0  0  0  0  0  0  0  0
   -1.5226    2.2707    0.9370 H   0  0  0  0  0  0  0  0  0  0  0  0
   -3.9940   -1.9063    0.1130 H   0  0  0  0  0  0  0  0  0  0  0  0
  1  2  1  0  0  0  0
  2  3  1  0  0  0  0
  2  4  1  0  0  0  0
  4  5  1  0  0  0  0
  4  6  1  0  0  0  0
  6  7  1  0  0  0  0
  6  8  1  0  0  0  0
  8  9  1  0  0  0  0
  8 10  1  0  0  0  0
 10 11  1  0  0  0  0
  2 12  1  0  0  0  0
 10 12  1  0  0  0  0
 10 13  1  0  0  0  0
  8 14  1  0  0  0  0
  6 15  1  0  0  0  0
  4 16  1  0  0  0  0
  1 17  1  0  0  0  0
  1 18  1  0  0  0  0
  1 19  1  0  0  0  0
 13 20  1  0  0  0  0
 14 21  1  0  0  0  0
 15 22  1  0  0  0  0
 16 23  1  0  0  0  0
 17 24  1  0  0  0  0
M  END
