 xtb: 6.7.1 (edcfbbe)
          04062518003D

 24 24  0     0  0            999 V2000
   -2.0291   -0.5755   -0.6711 C   0  0  0  0  0  0  0  0  0  0  0  0
   -1.2069   -0.0715    0.5405 C   0  0  0  0  0  0  0  0  0  0  0  0
   -1.8570   -0.0044    1.4204 H   0  0  0  0  0  0  0  0  0  0  0  0
   -0.6163    1.3297    0.2909 C   0  0  0  0  0  0  0  0  0  0  0  0
   -1.3451    1.9087   -0.2872 H   0  0  0  0  0  0  0  0  0  0  0  0
    0.7083    1.2875   -0.5091 C   0  0  0  0  0  0  0  0  0  0  0  0
    1.1694    2.2786   -0.4050 H   0  0  0  0  0  0  0  0  0  0  0  0
    1.6605    0.2430    0.0955 C   0  0  0  0  0  0  0  0  0  0  0  0
    2.5213    0.1279   -0.5778 H   0  0  0  0  0  0  0  0  0  0  0  0
    0.9339   -1.1147    0.1830 C   0  0  0  0  0  0  0  0  0  0  0  0
    1.5532   -1.8347    0.7460 H   0  0  0  0  0  0  0  0  0  0  0  0
   -0.2324   -1.0330    0.9456 O   0  0  0  0  0  0  0  0  0  0  0  0
    0.7212   -1.5752   -1.1207 O   0  0  0  0  0  0  0  0  0  0  0  0
    2.0526    0.6936    1.3668 O   0  0  0  0  0  0  0  0  0  0  0  0
    0.5110    1.0768   -1.8829 O   0  0  0  0  0  0  0  0  0  0  0  0
   -0.4438    2.0289    1.4993 O   0  0  0  0  0  0  0  0  0  0  0  0
   -2.1031   -1.9806   -0.7094 O   0  0  0  0  0  0  0  0  0  0  0  0
   -1.5604   -0.2742   -1.6086 H   0  0  0  0  0  0  0  0  0  0  0  0
   -3.0274   -0.1263   -0.6254 H   0  0  0  0  0  0  0  0  0  0  0  0
    0.0019   -2.2334   -1.1162 H   0  0  0  0  0  0  0  0  0  0  0  0
    2.7325    0.1126    1.7372 H   0  0  0  0  0  0  0  0  0  0  0  0
    0.5459    0.1180   -2.0567 H   0  0  0  0  0  0  0  0  0  0  0  0
    0.3367    1.6708    1.9553 H   0  0  0  0  0  0  0  0  0  0  0  0
   -2.5463   -2.3015    0.0888 H   0  0  0  0  0  0  0  0  0  0  0  0
  1  2  1  0  0  0  0
  2  3  1  0  0  0  0
  2  4  1  0  0  0  0
  4  5  1  0  0  0  0
  4  6  1  0  0  0  0
  6  7  1  0  0  0  0
  6  8  1  0  0  0  0
  8  9  1  0  0  0  0
  8 10  1  0  0  0  0
 10 11  1  0  0  0  0
  2 12  1  0  0  0  0
 10 12  1  0  0  0  0
 10 13  1  0  0  0  0
  8 14  1  0  0  0  0
  6 15  1  0  0  0  0
  4 16  1  0  0  0  0
  1 17  1  0  0  0  0
  1 18  1  0  0  0  0
  1 19  1  0  0  0  0
 13 20  1  0  0  0  0
 14 21  1  0  0  0  0
 15 22  1  0  0  0  0
 16 23  1  0  0  0  0
 17 24  1  0  0  0  0
M  END
