 xtb: 6.7.1 (edcfbbe)
          04062518003D

 24 24  0     0  0            999 V2000
   -2.2671   -0.9794    0.7725 C   0  0  0  0  0  0  0  0  0  0  0  0
   -0.8292   -0.4452    0.7617 C   0  0  0  0  0  0  0  0  0  0  0  0
   -0.5747   -0.0873    1.7707 H   0  0  0  0  0  0  0  0  0  0  0  0
   -0.6333    0.7091   -0.2316 C   0  0  0  0  0  0  0  0  0  0  0  0
   -0.6851    0.3074   -1.2519 H   0  0  0  0  0  0  0  0  0  0  0  0
    0.7640    1.2955   -0.0011 C   0  0  0  0  0  0  0  0  0  0  0  0
    0.7161    1.9141    0.9095 H   0  0  0  0  0  0  0  0  0  0  0  0
    1.7943    0.1842    0.2631 C   0  0  0  0  0  0  0  0  0  0  0  0
    2.6720    0.4087   -0.3569 H   0  0  0  0  0  0  0  0  0  0  0  0
    1.2613   -1.1934   -0.1709 C   0  0  0  0  0  0  0  0  0  0  0  0
    1.9586   -1.9761    0.1741 H   0  0  0  0  0  0  0  0  0  0  0  0
    0.0393   -1.5285    0.4366 O   0  0  0  0  0  0  0  0  0  0  0  0
    1.1769   -1.2048   -1.5616 O   0  0  0  0  0  0  0  0  0  0  0  0
    2.1034    0.1965    1.6333 O   0  0  0  0  0  0  0  0  0  0  0  0
    1.2028    2.0621   -1.0920 O   0  0  0  0  0  0  0  0  0  0  0  0
   -1.5706    1.7414   -0.0535 O   0  0  0  0  0  0  0  0  0  0  0  0
   -2.8435   -0.8498   -0.5094 O   0  0  0  0  0  0  0  0  0  0  0  0
   -2.8466   -0.4086    1.5081 H   0  0  0  0  0  0  0  0  0  0  0  0
   -2.2164   -2.0272    1.0838 H   0  0  0  0  0  0  0  0  0  0  0  0
    0.8617   -2.0718   -1.8630 H   0  0  0  0  0  0  0  0  0  0  0  0
    2.8813   -0.3538    1.8065 H   0  0  0  0  0  0  0  0  0  0  0  0
    0.5342    2.7386   -1.2777 H   0  0  0  0  0  0  0  0  0  0  0  0
   -2.4317    1.4223   -0.3640 H   0  0  0  0  0  0  0  0  0  0  0  0
   -3.6584   -1.3692   -0.5475 H   0  0  0  0  0  0  0  0  0  0  0  0
  1  2  1  0  0  0  0
  2  3  1  0  0  0  0
  2  4  1  0  0  0  0
  4  5  1  0  0  0  0
  4  6  1  0  0  0  0
  6  7  1  0  0  0  0
  6  8  1  0  0  0  0
  8  9  1  0  0  0  0
  8 10  1  0  0  0  0
 10 11  1  0  0  0  0
  2 12  1  0  0  0  0
 10 12  1  0  0  0  0
 10 13  1  0  0  0  0
  8 14  1  0  0  0  0
  6 15  1  0  0  0  0
  4 16  1  0  0  0  0
  1 17  1  0  0  0  0
  1 18  1  0  0  0  0
  1 19  1  0  0  0  0
 13 20  1  0  0  0  0
 14 21  1  0  0  0  0
 15 22  1  0  0  0  0
 16 23  1  0  0  0  0
 17 24  1  0  0  0  0
M  END
