 xtb: 6.7.1 (edcfbbe)
          04032521463D

 13 13  0     0  0            999 V2000
   -3.4762    0.3393   -0.0000 C   0  0  0  0  0  0  0  0  0  0  0  0
   -2.7417    1.5123    0.0000 C   0  0  0  0  0  0  0  0  0  0  0  0
   -1.3573    1.4575    0.0001 C   0  0  0  0  0  0  0  0  0  0  0  0
   -0.7268    0.2313    0.0000 C   0  0  0  0  0  0  0  0  0  0  0  0
   -1.4479   -0.9600   -0.0002 C   0  0  0  0  0  0  0  0  0  0  0  0
   -2.8378   -0.8876   -0.0000 C   0  0  0  0  0  0  0  0  0  0  0  0
   -0.7666   -2.1221    0.0001 O   0  0  0  0  0  0  0  0  0  0  0  0
    1.3940    0.1032   -0.0000 I   0  0  0  0  0  0  0  0  0  0  0  0
   -4.5541    0.3763    0.0000 H   0  0  0  0  0  0  0  0  0  0  0  0
   -3.2371    2.4696   -0.0004 H   0  0  0  0  0  0  0  0  0  0  0  0
   -0.7734    2.3643    0.0000 H   0  0  0  0  0  0  0  0  0  0  0  0
   -3.4153   -1.7998   -0.0003 H   0  0  0  0  0  0  0  0  0  0  0  0
   -1.3603   -2.8877    0.0003 H   0  0  0  0  0  0  0  0  0  0  0  0
  1  2  4  0  0  0  0
  2  3  4  0  0  0  0
  3  4  4  0  0  0  0
  4  5  4  0  0  0  0
  1  6  4  0  0  0  0
  5  6  4  0  0  0  0
  5  7  1  0  0  0  0
  4  8  1  0  0  0  0
  1  9  1  0  0  0  0
  2 10  1  0  0  0  0
  3 11  1  0  0  0  0
  6 12  1  0  0  0  0
  7 13  1  0  0  0  0
M  END
