 xtb: 6.7.1 (edcfbbe)
          04052508533D

 22 22  0     0  0            999 V2000
    3.3573   -0.0689    0.1722 C   0  0  0  0  0  0  0  0  0  0  0  0
    1.9297   -0.2800    0.2754 N   0  0  0  0  0  0  0  0  0  0  0  0
    1.4806   -1.3990    1.0809 C   0  0  0  0  0  0  0  0  0  0  0  0
    1.0738    0.5284   -0.3600 C   0  0  0  0  0  0  0  0  0  0  0  0
    1.4339    1.4809   -1.0593 O   0  0  0  0  0  0  0  0  0  0  0  0
   -0.3792    0.2134   -0.1741 C   0  0  0  0  0  0  0  0  0  0  0  0
   -1.0416   -0.5900   -1.0933 C   0  0  0  0  0  0  0  0  0  0  0  0
   -2.3940   -0.8445   -0.9427 C   0  0  0  0  0  0  0  0  0  0  0  0
   -3.0903   -0.2953    0.1209 C   0  0  0  0  0  0  0  0  0  0  0  0
   -2.4346    0.5161    1.0319 C   0  0  0  0  0  0  0  0  0  0  0  0
   -1.0822    0.7722    0.8860 C   0  0  0  0  0  0  0  0  0  0  0  0
    3.5248    0.8008   -0.4607 H   0  0  0  0  0  0  0  0  0  0  0  0
    3.8350   -0.9404   -0.2762 H   0  0  0  0  0  0  0  0  0  0  0  0
    3.7819    0.1140    1.1595 H   0  0  0  0  0  0  0  0  0  0  0  0
    0.8565   -1.0576    1.9072 H   0  0  0  0  0  0  0  0  0  0  0  0
    2.3535   -1.9059    1.4812 H   0  0  0  0  0  0  0  0  0  0  0  0
    0.9039   -2.1028    0.4798 H   0  0  0  0  0  0  0  0  0  0  0  0
   -0.4957   -1.0080   -1.9265 H   0  0  0  0  0  0  0  0  0  0  0  0
   -2.9036   -1.4706   -1.6590 H   0  0  0  0  0  0  0  0  0  0  0  0
   -4.1444   -0.4948    0.2367 H   0  0  0  0  0  0  0  0  0  0  0  0
   -2.9759    0.9523    1.8573 H   0  0  0  0  0  0  0  0  0  0  0  0
   -0.5682    1.4120    1.5885 H   0  0  0  0  0  0  0  0  0  0  0  0
  1  2  1  0  0  0  0
  2  3  1  0  0  0  0
  2  4  4  0  0  0  0
  4  5  2  0  0  0  0
  4  6  1  0  0  0  0
  6  7  4  0  0  0  0
  7  8  4  0  0  0  0
  8  9  4  0  0  0  0
  9 10  4  0  0  0  0
  6 11  4  0  0  0  0
 10 11  4  0  0  0  0
  1 12  1  0  0  0  0
  1 13  1  0  0  0  0
  1 14  1  0  0  0  0
  3 15  1  0  0  0  0
  3 16  1  0  0  0  0
  3 17  1  0  0  0  0
  7 18  1  0  0  0  0
  8 19  1  0  0  0  0
  9 20  1  0  0  0  0
 10 21  1  0  0  0  0
 11 22  1  0  0  0  0
M  END
