 xtb: 6.7.1 (edcfbbe)
          04032521523D

 25 27  0     0  0            999 V2000
    1.7286    1.4819    0.4503 C   0  0  0  0  0  0  0  0  0  0  0  0
    0.4494    0.7801    0.9222 C   0  0  0  0  0  0  0  0  0  0  0  0
    0.2471    1.1406    1.9336 H   0  0  0  0  0  0  0  0  0  0  0  0
    0.4482   -0.7788    0.9239 C   0  0  0  0  0  0  0  0  0  0  0  0
    0.2455   -1.1368    1.9361 H   0  0  0  0  0  0  0  0  0  0  0  0
    1.7264   -1.4832    0.4534 C   0  0  0  0  0  0  0  0  0  0  0  0
    2.7775   -1.2760    1.3765 O   0  0  0  0  0  0  0  0  0  0  0  0
    3.7958   -0.0019    1.0402 S   0  0  0  0  0  0  0  0  0  0  0  0
    4.7354   -0.0012    2.1249 O   0  0  0  0  0  0  0  0  0  0  0  0
    2.7799    1.2750    1.3731 O   0  0  0  0  0  0  0  0  0  0  0  0
   -0.7713   -1.1161    0.0242 C   0  0  0  0  0  0  0  0  0  0  0  0
   -0.4365   -0.6718   -1.3874 C   0  0  0  0  0  0  0  0  0  0  0  0
   -0.4353    0.6694   -1.3889 C   0  0  0  0  0  0  0  0  0  0  0  0
   -0.7696    1.1174    0.0217 C   0  0  0  0  0  0  0  0  0  0  0  0
   -1.7620    0.0018    0.4206 C   0  0  0  0  0  0  0  0  0  0  0  0
   -3.2417    0.0019   -0.5560 Cl  0  0  0  0  0  0  0  0  0  0  0  0
   -2.2264    0.0039    2.1183 Cl  0  0  0  0  0  0  0  0  0  0  0  0
   -1.3613    2.7627    0.1663 Cl  0  0  0  0  0  0  0  0  0  0  0  0
   -0.0789    1.7379   -2.6489 Cl  0  0  0  0  0  0  0  0  0  0  0  0
   -0.0808   -1.7436   -2.6447 Cl  0  0  0  0  0  0  0  0  0  0  0  0
   -1.3658   -2.7602    0.1724 Cl  0  0  0  0  0  0  0  0  0  0  0  0
    1.5439    2.5586    0.4184 H   0  0  0  0  0  0  0  0  0  0  0  0
    2.0299    1.1432   -0.5443 H   0  0  0  0  0  0  0  0  0  0  0  0
    1.5402   -2.5597    0.4232 H   0  0  0  0  0  0  0  0  0  0  0  0
    2.0288   -1.1466   -0.5415 H   0  0  0  0  0  0  0  0  0  0  0  0
  1  2  1  0  0  0  0
  2  3  1  0  0  0  0
  2  4  1  0  0  0  0
  4  5  1  0  0  0  0
  4  6  1  0  0  0  0
  6  7  1  0  0  0  0
  7  8  1  0  0  0  0
  8  9  2  0  0  0  0
  1 10  1  0  0  0  0
  8 10  1  0  0  0  0
  4 11  1  0  0  0  0
 11 12  1  0  0  0  0
 12 13  2  0  0  0  0
  2 14  1  0  0  0  0
 13 14  1  0  0  0  0
 11 15  1  0  0  0  0
 14 15  1  0  0  0  0
 15 16  1  0  0  0  0
 15 17  1  0  0  0  0
 14 18  1  0  0  0  0
 13 19  1  0  0  0  0
 12 20  1  0  0  0  0
 11 21  1  0  0  0  0
  1 22  1  0  0  0  0
  1 23  1  0  0  0  0
  6 24  1  0  0  0  0
  6 25  1  0  0  0  0
M  END
