 xtb: 6.7.1 (edcfbbe)
          04062501173D

 23 22  0     0  0            999 V2000
   -2.5085    0.9971    0.0276 C   0  0  0  0  0  0  0  0  0  0  0  0
   -1.7017   -0.2105    0.4950 C   0  0  0  0  0  0  0  0  0  0  0  0
   -0.5878   -0.6065   -0.4871 C   0  0  0  0  0  0  0  0  0  0  0  0
    0.8370   -0.1692   -0.0948 C   0  0  0  0  0  0  0  0  0  0  0  0
    1.7798   -0.5698   -1.2367 C   0  0  0  0  0  0  0  0  0  0  0  0
    0.9147    1.3498    0.0785 C   0  0  0  0  0  0  0  0  0  0  0  0
    1.2798   -0.8730    1.2048 C   0  0  0  0  0  0  0  0  0  0  0  0
   -1.8728    1.8687   -0.0988 H   0  0  0  0  0  0  0  0  0  0  0  0
   -2.9910    0.7846   -0.9242 H   0  0  0  0  0  0  0  0  0  0  0  0
   -3.2814    1.2391    0.7542 H   0  0  0  0  0  0  0  0  0  0  0  0
   -1.2771   -0.0007    1.4773 H   0  0  0  0  0  0  0  0  0  0  0  0
   -2.3887   -1.0513    0.6153 H   0  0  0  0  0  0  0  0  0  0  0  0
   -0.8221   -0.1899   -1.4691 H   0  0  0  0  0  0  0  0  0  0  0  0
   -0.5750   -1.6935   -0.5966 H   0  0  0  0  0  0  0  0  0  0  0  0
    1.7399   -1.6434   -1.4082 H   0  0  0  0  0  0  0  0  0  0  0  0
    1.5001   -0.0663   -2.1599 H   0  0  0  0  0  0  0  0  0  0  0  0
    2.8048   -0.2963   -0.9968 H   0  0  0  0  0  0  0  0  0  0  0  0
    0.5811    1.8545   -0.8257 H   0  0  0  0  0  0  0  0  0  0  0  0
    1.9420    1.6498    0.2756 H   0  0  0  0  0  0  0  0  0  0  0  0
    0.2990    1.6816    0.9100 H   0  0  0  0  0  0  0  0  0  0  0  0
    2.1359   -1.5176    1.0228 H   0  0  0  0  0  0  0  0  0  0  0  0
    1.5648   -0.1502    1.9650 H   0  0  0  0  0  0  0  0  0  0  0  0
    0.4830   -1.4901    1.6110 H   0  0  0  0  0  0  0  0  0  0  0  0
  1  2  1  0  0  0  0
  2  3  1  0  0  0  0
  3  4  1  0  0  0  0
  4  5  1  0  0  0  0
  4  6  1  0  0  0  0
  4  7  1  0  0  0  0
  1  8  1  0  0  0  0
  1  9  1  0  0  0  0
  1 10  1  0  0  0  0
  2 11  1  0  0  0  0
  2 12  1  0  0  0  0
  3 13  1  0  0  0  0
  3 14  1  0  0  0  0
  5 15  1  0  0  0  0
  5 16  1  0  0  0  0
  5 17  1  0  0  0  0
  6 18  1  0  0  0  0
  6 19  1  0  0  0  0
  6 20  1  0  0  0  0
  7 21  1  0  0  0  0
  7 22  1  0  0  0  0
  7 23  1  0  0  0  0
M  END
