 xtb: 6.7.1 (edcfbbe)
          04052508543D

 22 23  0     0  0            999 V2000
    0.7412    0.0006   -0.0061 C   0  0  0  0  0  0  0  0  0  0  0  0
    1.4456    0.8268   -0.8776 C   0  0  0  0  0  0  0  0  0  0  0  0
    2.8396    0.8326   -0.8776 C   0  0  0  0  0  0  0  0  0  0  0  0
    3.5328    0.0018    0.0027 C   0  0  0  0  0  0  0  0  0  0  0  0
    2.8348   -0.8305    0.8779 C   0  0  0  0  0  0  0  0  0  0  0  0
    1.4410   -0.8257    0.8691 C   0  0  0  0  0  0  0  0  0  0  0  0
    0.5695   -1.8424    1.9381 Cl  0  0  0  0  0  0  0  0  0  0  0  0
    3.6879   -1.8514    1.9569 Cl  0  0  0  0  0  0  0  0  0  0  0  0
    5.2447    0.0034    0.0091 Cl  0  0  0  0  0  0  0  0  0  0  0  0
    3.6988    1.8545   -1.9508 Cl  0  0  0  0  0  0  0  0  0  0  0  0
    0.5801    1.8429   -1.9520 Cl  0  0  0  0  0  0  0  0  0  0  0  0
   -0.7412    0.0015   -0.0062 C   0  0  0  0  0  0  0  0  0  0  0  0
   -1.4416    0.8271    0.8692 C   0  0  0  0  0  0  0  0  0  0  0  0
   -2.8354    0.8302    0.8787 C   0  0  0  0  0  0  0  0  0  0  0  0
   -3.5327   -0.0028    0.0038 C   0  0  0  0  0  0  0  0  0  0  0  0
   -2.8390   -0.8328   -0.8769 C   0  0  0  0  0  0  0  0  0  0  0  0
   -1.4451   -0.8253   -0.8775 C   0  0  0  0  0  0  0  0  0  0  0  0
   -0.5788   -1.8405   -1.9523 Cl  0  0  0  0  0  0  0  0  0  0  0  0
   -3.6975   -1.8558   -1.9494 Cl  0  0  0  0  0  0  0  0  0  0  0  0
   -5.2447   -0.0068    0.0114 Cl  0  0  0  0  0  0  0  0  0  0  0  0
   -3.6893    1.8502    1.9581 Cl  0  0  0  0  0  0  0  0  0  0  0  0
   -0.5708    1.8448    1.9378 Cl  0  0  0  0  0  0  0  0  0  0  0  0
  1  2  4  0  0  0  0
  2  3  4  0  0  0  0
  3  4  4  0  0  0  0
  4  5  4  0  0  0  0
  1  6  4  0  0  0  0
  5  6  4  0  0  0  0
  6  7  1  0  0  0  0
  5  8  1  0  0  0  0
  4  9  1  0  0  0  0
  3 10  1  0  0  0  0
  2 11  1  0  0  0  0
  1 12  1  0  0  0  0
 12 13  4  0  0  0  0
 13 14  4  0  0  0  0
 14 15  4  0  0  0  0
 15 16  4  0  0  0  0
 12 17  4  0  0  0  0
 16 17  4  0  0  0  0
 17 18  1  0  0  0  0
 16 19  1  0  0  0  0
 15 20  1  0  0  0  0
 14 21  1  0  0  0  0
 13 22  1  0  0  0  0
M  END
