 xtb: 6.7.1 (edcfbbe)
          04062518003D

 24 24  0     0  0            999 V2000
   -2.2445   -1.0088   -0.3611 C   0  0  0  0  0  0  0  0  0  0  0  0
   -1.1567   -0.2215    0.3846 C   0  0  0  0  0  0  0  0  0  0  0  0
   -1.5953    0.2178    1.2898 H   0  0  0  0  0  0  0  0  0  0  0  0
   -0.5655    0.9093   -0.4698 C   0  0  0  0  0  0  0  0  0  0  0  0
   -0.3849    0.5578   -1.4942 H   0  0  0  0  0  0  0  0  0  0  0  0
    0.7795    1.3345    0.1407 C   0  0  0  0  0  0  0  0  0  0  0  0
    0.6018    1.5947    1.1979 H   0  0  0  0  0  0  0  0  0  0  0  0
    1.7766    0.1708    0.0653 C   0  0  0  0  0  0  0  0  0  0  0  0
    2.3077    0.2396   -0.8893 H   0  0  0  0  0  0  0  0  0  0  0  0
    1.0328   -1.1857    0.0984 C   0  0  0  0  0  0  0  0  0  0  0  0
    1.6610   -1.8982    0.6496 H   0  0  0  0  0  0  0  0  0  0  0  0
   -0.1529   -1.1267    0.8553 O   0  0  0  0  0  0  0  0  0  0  0  0
    0.8066   -1.6048   -1.2109 O   0  0  0  0  0  0  0  0  0  0  0  0
    2.7655    0.2322    1.0554 O   0  0  0  0  0  0  0  0  0  0  0  0
    1.3220    2.4365   -0.5357 O   0  0  0  0  0  0  0  0  0  0  0  0
   -1.3886    2.0511   -0.4632 O   0  0  0  0  0  0  0  0  0  0  0  0
   -2.8850   -1.9359    0.4797 O   0  0  0  0  0  0  0  0  0  0  0  0
   -1.7937   -1.5142   -1.2254 H   0  0  0  0  0  0  0  0  0  0  0  0
   -3.0261   -0.3317   -0.7091 H   0  0  0  0  0  0  0  0  0  0  0  0
    0.6946   -2.5668   -1.2511 H   0  0  0  0  0  0  0  0  0  0  0  0
    2.3559    0.2952    1.9313 H   0  0  0  0  0  0  0  0  0  0  0  0
    0.6274    3.1102   -0.6149 H   0  0  0  0  0  0  0  0  0  0  0  0
   -2.1648    1.9132   -1.0216 H   0  0  0  0  0  0  0  0  0  0  0  0
   -2.2058   -2.4332    0.9592 H   0  0  0  0  0  0  0  0  0  0  0  0
  1  2  1  0  0  0  0
  2  3  1  0  0  0  0
  2  4  1  0  0  0  0
  4  5  1  0  0  0  0
  4  6  1  0  0  0  0
  6  7  1  0  0  0  0
  6  8  1  0  0  0  0
  8  9  1  0  0  0  0
  8 10  1  0  0  0  0
 10 11  1  0  0  0  0
  2 12  1  0  0  0  0
 10 12  1  0  0  0  0
 10 13  1  0  0  0  0
  8 14  1  0  0  0  0
  6 15  1  0  0  0  0
  4 16  1  0  0  0  0
  1 17  1  0  0  0  0
  1 18  1  0  0  0  0
  1 19  1  0  0  0  0
 13 20  1  0  0  0  0
 14 21  1  0  0  0  0
 15 22  1  0  0  0  0
 16 23  1  0  0  0  0
 17 24  1  0  0  0  0
M  END
