 xtb: 6.7.1 (edcfbbe)
          04062518003D

 24 24  0     0  0            999 V2000
   -2.1236   -1.1647   -0.2053 C   0  0  0  0  0  0  0  0  0  0  0  0
   -1.2608   -0.3293    0.7501 C   0  0  0  0  0  0  0  0  0  0  0  0
   -1.8532   -0.1411    1.6518 H   0  0  0  0  0  0  0  0  0  0  0  0
   -0.9018    1.0431    0.1472 C   0  0  0  0  0  0  0  0  0  0  0  0
   -1.1534    1.0621   -0.9244 H   0  0  0  0  0  0  0  0  0  0  0  0
    0.6062    1.2820    0.2611 C   0  0  0  0  0  0  0  0  0  0  0  0
    0.8906    1.3375    1.3232 H   0  0  0  0  0  0  0  0  0  0  0  0
    1.3234    0.0943   -0.3839 C   0  0  0  0  0  0  0  0  0  0  0  0
    0.9585   -0.0099   -1.4173 H   0  0  0  0  0  0  0  0  0  0  0  0
    0.9833   -1.1941    0.4012 C   0  0  0  0  0  0  0  0  0  0  0  0
    1.8079   -1.4238    1.0879 H   0  0  0  0  0  0  0  0  0  0  0  0
   -0.1284   -1.0296    1.2498 O   0  0  0  0  0  0  0  0  0  0  0  0
    0.8660   -2.2971   -0.4360 O   0  0  0  0  0  0  0  0  0  0  0  0
    2.7033    0.3699   -0.3782 O   0  0  0  0  0  0  0  0  0  0  0  0
    0.9039    2.4909   -0.3906 O   0  0  0  0  0  0  0  0  0  0  0  0
   -1.6432    2.0240    0.8272 O   0  0  0  0  0  0  0  0  0  0  0  0
   -1.4809   -1.3110   -1.4598 O   0  0  0  0  0  0  0  0  0  0  0  0
   -3.0771   -0.6418   -0.3229 H   0  0  0  0  0  0  0  0  0  0  0  0
   -2.2929   -2.1454    0.2538 H   0  0  0  0  0  0  0  0  0  0  0  0
    0.0899   -2.1578   -1.0204 H   0  0  0  0  0  0  0  0  0  0  0  0
    3.1798   -0.3345   -0.8391 H   0  0  0  0  0  0  0  0  0  0  0  0
    1.8667    2.5556   -0.4805 H   0  0  0  0  0  0  0  0  0  0  0  0
   -1.3302    2.8950    0.5384 H   0  0  0  0  0  0  0  0  0  0  0  0
   -2.0992   -1.7161   -2.0855 H   0  0  0  0  0  0  0  0  0  0  0  0
  1  2  1  0  0  0  0
  2  3  1  0  0  0  0
  2  4  1  0  0  0  0
  4  5  1  0  0  0  0
  4  6  1  0  0  0  0
  6  7  1  0  0  0  0
  6  8  1  0  0  0  0
  8  9  1  0  0  0  0
  8 10  1  0  0  0  0
 10 11  1  0  0  0  0
  2 12  1  0  0  0  0
 10 12  1  0  0  0  0
 10 13  1  0  0  0  0
  8 14  1  0  0  0  0
  6 15  1  0  0  0  0
  4 16  1  0  0  0  0
  1 17  1  0  0  0  0
  1 18  1  0  0  0  0
  1 19  1  0  0  0  0
 13 20  1  0  0  0  0
 14 21  1  0  0  0  0
 15 22  1  0  0  0  0
 16 23  1  0  0  0  0
 17 24  1  0  0  0  0
M  END
