 xtb: 6.7.1 (edcfbbe)
          04032522113D

 11 10  0     0  0            999 V2000
   -2.9208   -0.0361    0.0044 C   0  0  0  0  0  0  0  0  0  0  0  0
   -1.6604    0.6505    0.0006 O   0  0  0  0  0  0  0  0  0  0  0  0
   -0.5451   -0.0566   -0.0042 C   0  0  0  0  0  0  0  0  0  0  0  0
   -0.4861   -1.2631   -0.0058 O   0  0  0  0  0  0  0  0  0  0  0  0
    0.6481    0.8784   -0.0079 C   0  0  0  0  0  0  0  0  0  0  0  0
    2.1626   -0.0590    0.0053 Cl  0  0  0  0  0  0  0  0  0  0  0  0
   -2.7638   -1.1057   -0.1340 H   0  0  0  0  0  0  0  0  0  0  0  0
   -3.5117    0.3772   -0.8095 H   0  0  0  0  0  0  0  0  0  0  0  0
   -3.4046    0.1555    0.9605 H   0  0  0  0  0  0  0  0  0  0  0  0
    0.6288    1.5127    0.8778 H   0  0  0  0  0  0  0  0  0  0  0  0
    0.6349    1.4955   -0.9059 H   0  0  0  0  0  0  0  0  0  0  0  0
  1  2  1  0  0  0  0
  2  3  1  0  0  0  0
  3  4  2  0  0  0  0
  3  5  1  0  0  0  0
  5  6  1  0  0  0  0
  1  7  1  0  0  0  0
  1  8  1  0  0  0  0
  1  9  1  0  0  0  0
  5 10  1  0  0  0  0
  5 11  1  0  0  0  0
M  END
