 xtb: 6.7.1 (edcfbbe)
          04052503093D

 19 19  0     0  0            999 V2000
   -3.8114   -0.7230    0.0108 C   0  0  0  0  0  0  0  0  0  0  0  0
   -2.3848   -0.7870    0.0120 O   0  0  0  0  0  0  0  0  0  0  0  0
   -1.7006    0.3601   -0.0062 C   0  0  0  0  0  0  0  0  0  0  0  0
   -2.2436    1.4528   -0.0166 O   0  0  0  0  0  0  0  0  0  0  0  0
   -0.2448    0.1598   -0.0028 C   0  0  0  0  0  0  0  0  0  0  0  0
    0.5883    1.2812    0.0072 C   0  0  0  0  0  0  0  0  0  0  0  0
    1.9557    1.1366    0.0100 C   0  0  0  0  0  0  0  0  0  0  0  0
    2.5239   -0.1400    0.0013 C   0  0  0  0  0  0  0  0  0  0  0  0
    1.6946   -1.2622   -0.0094 C   0  0  0  0  0  0  0  0  0  0  0  0
    0.3245   -1.1139   -0.0111 C   0  0  0  0  0  0  0  0  0  0  0  0
    3.8667   -0.2327    0.0035 O   0  0  0  0  0  0  0  0  0  0  0  0
   -4.1426    0.2284    0.4291 H   0  0  0  0  0  0  0  0  0  0  0  0
   -4.1565   -1.5579    0.6147 H   0  0  0  0  0  0  0  0  0  0  0  0
   -4.1717   -0.8167   -1.0140 H   0  0  0  0  0  0  0  0  0  0  0  0
    0.1334    2.2599    0.0133 H   0  0  0  0  0  0  0  0  0  0  0  0
    2.6102    1.9930    0.0185 H   0  0  0  0  0  0  0  0  0  0  0  0
    2.1268   -2.2515   -0.0167 H   0  0  0  0  0  0  0  0  0  0  0  0
   -0.3172   -1.9801   -0.0196 H   0  0  0  0  0  0  0  0  0  0  0  0
    4.1591   -1.1585   -0.0034 H   0  0  0  0  0  0  0  0  0  0  0  0
  1  2  1  0  0  0  0
  2  3  1  0  0  0  0
  3  4  2  0  0  0  0
  3  5  1  0  0  0  0
  5  6  4  0  0  0  0
  6  7  4  0  0  0  0
  7  8  4  0  0  0  0
  8  9  4  0  0  0  0
  5 10  4  0  0  0  0
  9 10  4  0  0  0  0
  8 11  1  0  0  0  0
  1 12  1  0  0  0  0
  1 13  1  0  0  0  0
  1 14  1  0  0  0  0
  6 15  1  0  0  0  0
  7 16  1  0  0  0  0
  9 17  1  0  0  0  0
 10 18  1  0  0  0  0
 11 19  1  0  0  0  0
M  END
