 xtb: 6.7.1 (edcfbbe)
          04062518003D

 24 24  0     0  0            999 V2000
   -2.4239   -0.8619    0.3530 C   0  0  0  0  0  0  0  0  0  0  0  0
   -0.9645   -0.4426    0.5740 C   0  0  0  0  0  0  0  0  0  0  0  0
   -0.7151   -0.6040    1.6338 H   0  0  0  0  0  0  0  0  0  0  0  0
   -0.7375    1.0462    0.2469 C   0  0  0  0  0  0  0  0  0  0  0  0
   -1.5232    1.3828   -0.4417 H   0  0  0  0  0  0  0  0  0  0  0  0
    0.6302    1.2409   -0.4589 C   0  0  0  0  0  0  0  0  0  0  0  0
    0.9387    2.2859   -0.3395 H   0  0  0  0  0  0  0  0  0  0  0  0
    1.6761    0.3415    0.2172 C   0  0  0  0  0  0  0  0  0  0  0  0
    2.6333    0.4210   -0.3108 H   0  0  0  0  0  0  0  0  0  0  0  0
    1.2317   -1.1409    0.1030 C   0  0  0  0  0  0  0  0  0  0  0  0
    1.4047   -1.6214    1.0876 H   0  0  0  0  0  0  0  0  0  0  0  0
   -0.1402   -1.2673   -0.2298 O   0  0  0  0  0  0  0  0  0  0  0  0
    1.9620   -1.7433   -0.9004 O   0  0  0  0  0  0  0  0  0  0  0  0
    1.9115    0.7196    1.5482 O   0  0  0  0  0  0  0  0  0  0  0  0
    0.5511    1.0251   -1.8413 O   0  0  0  0  0  0  0  0  0  0  0  0
   -0.7800    1.7466    1.4721 O   0  0  0  0  0  0  0  0  0  0  0  0
   -2.8790   -0.5961   -0.9470 O   0  0  0  0  0  0  0  0  0  0  0  0
   -3.0561   -0.2801    1.0259 H   0  0  0  0  0  0  0  0  0  0  0  0
   -2.5218   -1.9267    0.5933 H   0  0  0  0  0  0  0  0  0  0  0  0
    1.6899   -2.6691   -1.0039 H   0  0  0  0  0  0  0  0  0  0  0  0
    1.0831    1.0445    1.9448 H   0  0  0  0  0  0  0  0  0  0  0  0
    0.4806    0.0741   -2.0120 H   0  0  0  0  0  0  0  0  0  0  0  0
   -0.9533    2.6854    1.3146 H   0  0  0  0  0  0  0  0  0  0  0  0
   -2.3817   -1.1444   -1.5699 H   0  0  0  0  0  0  0  0  0  0  0  0
  1  2  1  0  0  0  0
  2  3  1  0  0  0  0
  2  4  1  0  0  0  0
  4  5  1  0  0  0  0
  4  6  1  0  0  0  0
  6  7  1  0  0  0  0
  6  8  1  0  0  0  0
  8  9  1  0  0  0  0
  8 10  1  0  0  0  0
 10 11  1  0  0  0  0
  2 12  1  0  0  0  0
 10 12  1  0  0  0  0
 10 13  1  0  0  0  0
  8 14  1  0  0  0  0
  6 15  1  0  0  0  0
  4 16  1  0  0  0  0
  1 17  1  0  0  0  0
  1 18  1  0  0  0  0
  1 19  1  0  0  0  0
 13 20  1  0  0  0  0
 14 21  1  0  0  0  0
 15 22  1  0  0  0  0
 16 23  1  0  0  0  0
 17 24  1  0  0  0  0
M  END
