 xtb: 6.7.1 (edcfbbe)
          04062518003D

 24 24  0     0  0            999 V2000
   -2.1475   -0.9292   -0.2337 C   0  0  0  0  0  0  0  0  0  0  0  0
   -1.1466   -0.3588    0.7837 C   0  0  0  0  0  0  0  0  0  0  0  0
   -1.6651   -0.3711    1.7507 H   0  0  0  0  0  0  0  0  0  0  0  0
   -0.7469    1.1138    0.5314 C   0  0  0  0  0  0  0  0  0  0  0  0
   -1.6088    1.6386    0.1042 H   0  0  0  0  0  0  0  0  0  0  0  0
    0.4507    1.2811   -0.4234 C   0  0  0  0  0  0  0  0  0  0  0  0
    0.8623    2.2844   -0.2478 H   0  0  0  0  0  0  0  0  0  0  0  0
    1.5710    0.2838   -0.0575 C   0  0  0  0  0  0  0  0  0  0  0  0
    2.2951    0.2695   -0.8844 H   0  0  0  0  0  0  0  0  0  0  0  0
    1.0580   -1.1610    0.1387 C   0  0  0  0  0  0  0  0  0  0  0  0
    1.8357   -1.7386    0.6591 H   0  0  0  0  0  0  0  0  0  0  0  0
   -0.0355   -1.2221    1.0173 O   0  0  0  0  0  0  0  0  0  0  0  0
    0.8525   -1.8259   -1.0643 O   0  0  0  0  0  0  0  0  0  0  0  0
    2.1520    0.7650    1.1342 O   0  0  0  0  0  0  0  0  0  0  0  0
    0.1086    1.2451   -1.7792 O   0  0  0  0  0  0  0  0  0  0  0  0
   -0.4881    1.7576    1.7574 O   0  0  0  0  0  0  0  0  0  0  0  0
   -1.6654   -0.8472   -1.5657 O   0  0  0  0  0  0  0  0  0  0  0  0
   -3.0776   -0.3614   -0.1362 H   0  0  0  0  0  0  0  0  0  0  0  0
   -2.3259   -1.9759    0.0350 H   0  0  0  0  0  0  0  0  0  0  0  0
    0.0129   -1.5245   -1.4704 H   0  0  0  0  0  0  0  0  0  0  0  0
    2.9488    0.2597    1.3483 H   0  0  0  0  0  0  0  0  0  0  0  0
   -0.5317    0.5245   -1.9345 H   0  0  0  0  0  0  0  0  0  0  0  0
    0.3819    1.4707    2.0805 H   0  0  0  0  0  0  0  0  0  0  0  0
   -2.3405   -1.1878   -2.1711 H   0  0  0  0  0  0  0  0  0  0  0  0
  1  2  1  0  0  0  0
  2  3  1  0  0  0  0
  2  4  1  0  0  0  0
  4  5  1  0  0  0  0
  4  6  1  0  0  0  0
  6  7  1  0  0  0  0
  6  8  1  0  0  0  0
  8  9  1  0  0  0  0
  8 10  1  0  0  0  0
 10 11  1  0  0  0  0
  2 12  1  0  0  0  0
 10 12  1  0  0  0  0
 10 13  1  0  0  0  0
  8 14  1  0  0  0  0
  6 15  1  0  0  0  0
  4 16  1  0  0  0  0
  1 17  1  0  0  0  0
  1 18  1  0  0  0  0
  1 19  1  0  0  0  0
 13 20  1  0  0  0  0
 14 21  1  0  0  0  0
 15 22  1  0  0  0  0
 16 23  1  0  0  0  0
 17 24  1  0  0  0  0
M  END
