 xtb: 6.7.1 (edcfbbe)
          04062518003D

 24 24  0     0  0            999 V2000
   -2.2904   -0.9050    0.8079 C   0  0  0  0  0  0  0  0  0  0  0  0
   -0.8380   -0.4116    0.7482 C   0  0  0  0  0  0  0  0  0  0  0  0
   -0.5478   -0.0673    1.7522 H   0  0  0  0  0  0  0  0  0  0  0  0
   -0.6384    0.7366   -0.2542 C   0  0  0  0  0  0  0  0  0  0  0  0
   -0.6723    0.3265   -1.2729 H   0  0  0  0  0  0  0  0  0  0  0  0
    0.7577    1.3179   -0.0041 C   0  0  0  0  0  0  0  0  0  0  0  0
    0.6791    1.9490    0.8967 H   0  0  0  0  0  0  0  0  0  0  0  0
    1.7755    0.1936    0.2829 C   0  0  0  0  0  0  0  0  0  0  0  0
    2.6602    0.3945   -0.3354 H   0  0  0  0  0  0  0  0  0  0  0  0
    1.2527   -1.1841   -0.1509 C   0  0  0  0  0  0  0  0  0  0  0  0
    1.9393   -1.9449    0.2518 H   0  0  0  0  0  0  0  0  0  0  0  0
   -0.0079   -1.5113    0.3825 O   0  0  0  0  0  0  0  0  0  0  0  0
    1.2340   -1.2144   -1.5439 O   0  0  0  0  0  0  0  0  0  0  0  0
    2.1042    0.0992    1.6452 O   0  0  0  0  0  0  0  0  0  0  0  0
    1.2302    2.0764   -1.0870 O   0  0  0  0  0  0  0  0  0  0  0  0
   -1.5730    1.7757   -0.1010 O   0  0  0  0  0  0  0  0  0  0  0  0
   -2.8923   -1.0223   -0.4574 O   0  0  0  0  0  0  0  0  0  0  0  0
   -2.8842   -0.1771    1.3632 H   0  0  0  0  0  0  0  0  0  0  0  0
   -2.3009   -1.8587    1.3453 H   0  0  0  0  0  0  0  0  0  0  0  0
    1.1010   -2.1228   -1.8558 H   0  0  0  0  0  0  0  0  0  0  0  0
    2.6583    0.8517    1.8997 H   0  0  0  0  0  0  0  0  0  0  0  0
    0.5604    2.7379   -1.3161 H   0  0  0  0  0  0  0  0  0  0  0  0
   -2.4398    1.4607   -0.3968 H   0  0  0  0  0  0  0  0  0  0  0  0
   -2.4928   -1.7651   -0.9292 H   0  0  0  0  0  0  0  0  0  0  0  0
  1  2  1  0  0  0  0
  2  3  1  0  0  0  0
  2  4  1  0  0  0  0
  4  5  1  0  0  0  0
  4  6  1  0  0  0  0
  6  7  1  0  0  0  0
  6  8  1  0  0  0  0
  8  9  1  0  0  0  0
  8 10  1  0  0  0  0
 10 11  1  0  0  0  0
  2 12  1  0  0  0  0
 10 12  1  0  0  0  0
 10 13  1  0  0  0  0
  8 14  1  0  0  0  0
  6 15  1  0  0  0  0
  4 16  1  0  0  0  0
  1 17  1  0  0  0  0
  1 18  1  0  0  0  0
  1 19  1  0  0  0  0
 13 20  1  0  0  0  0
 14 21  1  0  0  0  0
 15 22  1  0  0  0  0
 16 23  1  0  0  0  0
 17 24  1  0  0  0  0
M  END
