 xtb: 6.7.1 (edcfbbe)
          04062508313D

 24 24  0     0  0            999 V2000
   -3.5589    0.3680   -0.2499 C   0  0  0  0  0  0  0  0  0  0  0  0
   -2.1789    0.4483   -0.6193 O   0  0  0  0  0  0  0  0  0  0  0  0
   -1.3070   -0.2433    0.1077 C   0  0  0  0  0  0  0  0  0  0  0  0
   -1.6333   -0.9380    1.0472 O   0  0  0  0  0  0  0  0  0  0  0  0
    0.1090   -0.0141   -0.3592 C   0  0  0  0  0  0  0  0  0  0  0  0
    0.9546   -1.2769   -0.1897 C   0  0  0  0  0  0  0  0  0  0  0  0
    2.4033   -1.0082   -0.5837 C   0  0  0  0  0  0  0  0  0  0  0  0
    2.9838    0.1315    0.2477 C   0  0  0  0  0  0  0  0  0  0  0  0
    2.1454    1.3938    0.0736 C   0  0  0  0  0  0  0  0  0  0  0  0
    0.6972    1.1346    0.4768 C   0  0  0  0  0  0  0  0  0  0  0  0
   -3.6983    0.7660    0.7558 H   0  0  0  0  0  0  0  0  0  0  0  0
   -3.8890   -0.6711   -0.2691 H   0  0  0  0  0  0  0  0  0  0  0  0
   -4.0934    0.9629   -0.9834 H   0  0  0  0  0  0  0  0  0  0  0  0
    0.0758    0.2898   -1.4087 H   0  0  0  0  0  0  0  0  0  0  0  0
    0.9002   -1.5947    0.8536 H   0  0  0  0  0  0  0  0  0  0  0  0
    0.5398   -2.0799   -0.8024 H   0  0  0  0  0  0  0  0  0  0  0  0
    2.9930   -1.9144   -0.4391 H   0  0  0  0  0  0  0  0  0  0  0  0
    2.4459   -0.7436   -1.6423 H   0  0  0  0  0  0  0  0  0  0  0  0
    2.9905   -0.1564    1.3009 H   0  0  0  0  0  0  0  0  0  0  0  0
    4.0138    0.3252   -0.0556 H   0  0  0  0  0  0  0  0  0  0  0  0
    2.5517    2.2002    0.6857 H   0  0  0  0  0  0  0  0  0  0  0  0
    2.1783    1.7114   -0.9703 H   0  0  0  0  0  0  0  0  0  0  0  0
    0.6505    0.8594    1.5331 H   0  0  0  0  0  0  0  0  0  0  0  0
    0.0975    2.0353    0.3314 H   0  0  0  0  0  0  0  0  0  0  0  0
  1  2  1  0  0  0  0
  2  3  1  0  0  0  0
  3  4  2  0  0  0  0
  3  5  1  0  0  0  0
  5  6  1  0  0  0  0
  6  7  1  0  0  0  0
  7  8  1  0  0  0  0
  8  9  1  0  0  0  0
  5 10  1  0  0  0  0
  9 10  1  0  0  0  0
  1 11  1  0  0  0  0
  1 12  1  0  0  0  0
  1 13  1  0  0  0  0
  5 14  1  0  0  0  0
  6 15  1  0  0  0  0
  6 16  1  0  0  0  0
  7 17  1  0  0  0  0
  7 18  1  0  0  0  0
  8 19  1  0  0  0  0
  8 20  1  0  0  0  0
  9 21  1  0  0  0  0
  9 22  1  0  0  0  0
 10 23  1  0  0  0  0
 10 24  1  0  0  0  0
M  END
