 xtb: 6.7.1 (edcfbbe)
          04032521463D

 17 17  0     0  0            999 V2000
   -2.5621   -0.9731    0.0073 C   0  0  0  0  0  0  0  0  0  0  0  0
   -1.2382   -0.2788   -0.0077 C   0  0  0  0  0  0  0  0  0  0  0  0
   -1.1524    1.1106   -0.0035 C   0  0  0  0  0  0  0  0  0  0  0  0
    0.0995    1.6984    0.0013 C   0  0  0  0  0  0  0  0  0  0  0  0
    1.2335    1.0167    0.0022 N   0  0  0  0  0  0  0  0  0  0  0  0
    1.1691   -0.3131   -0.0011 C   0  0  0  0  0  0  0  0  0  0  0  0
   -0.0456   -0.9907   -0.0061 C   0  0  0  0  0  0  0  0  0  0  0  0
    2.4733   -1.0471    0.0018 C   0  0  0  0  0  0  0  0  0  0  0  0
   -2.9331   -1.0277    1.0304 H   0  0  0  0  0  0  0  0  0  0  0  0
   -3.2900   -0.4239   -0.5846 H   0  0  0  0  0  0  0  0  0  0  0  0
   -2.4734   -1.9853   -0.3781 H   0  0  0  0  0  0  0  0  0  0  0  0
   -2.0431    1.7193   -0.0060 H   0  0  0  0  0  0  0  0  0  0  0  0
    0.2097    2.7754    0.0029 H   0  0  0  0  0  0  0  0  0  0  0  0
   -0.0584   -2.0705   -0.0105 H   0  0  0  0  0  0  0  0  0  0  0  0
    2.3147   -2.1201   -0.0467 H   0  0  0  0  0  0  0  0  0  0  0  0
    3.0755   -0.7297   -0.8462 H   0  0  0  0  0  0  0  0  0  0  0  0
    3.0280   -0.8048    0.9056 H   0  0  0  0  0  0  0  0  0  0  0  0
  1  2  1  0  0  0  0
  2  3  4  0  0  0  0
  3  4  4  0  0  0  0
  4  5  4  0  0  0  0
  5  6  4  0  0  0  0
  2  7  4  0  0  0  0
  6  7  4  0  0  0  0
  6  8  1  0  0  0  0
  1  9  1  0  0  0  0
  1 10  1  0  0  0  0
  1 11  1  0  0  0  0
  3 12  1  0  0  0  0
  4 13  1  0  0  0  0
  7 14  1  0  0  0  0
  8 15  1  0  0  0  0
  8 16  1  0  0  0  0
  8 17  1  0  0  0  0
M  END
