 xtb: 6.7.1 (edcfbbe)
          04042516023D

 14 13  0     0  0            999 V2000
   -2.0051   -0.8654   -0.6299 C   0  0  0  0  0  0  0  0  0  0  0  0
   -1.4227   -0.0808    0.5458 C   0  0  0  0  0  0  0  0  0  0  0  0
   -0.0197    0.3905    0.2592 C   0  0  0  0  0  0  0  0  0  0  0  0
    0.3417    1.5488    0.3136 O   0  0  0  0  0  0  0  0  0  0  0  0
    0.7820   -0.6176   -0.0548 O   0  0  0  0  0  0  0  0  0  0  0  0
    2.1529   -0.3504   -0.3631 C   0  0  0  0  0  0  0  0  0  0  0  0
   -2.0549   -0.2391   -1.5172 H   0  0  0  0  0  0  0  0  0  0  0  0
   -1.3873   -1.7318   -0.8476 H   0  0  0  0  0  0  0  0  0  0  0  0
   -3.0084   -1.1998   -0.3842 H   0  0  0  0  0  0  0  0  0  0  0  0
   -1.3823   -0.7228    1.4272 H   0  0  0  0  0  0  0  0  0  0  0  0
   -2.0307    0.7953    0.7704 H   0  0  0  0  0  0  0  0  0  0  0  0
    2.3179   -0.5964   -1.4108 H   0  0  0  0  0  0  0  0  0  0  0  0
    2.7591   -0.9891    0.2758 H   0  0  0  0  0  0  0  0  0  0  0  0
    2.3759    0.7014   -0.1810 H   0  0  0  0  0  0  0  0  0  0  0  0
  1  2  1  0  0  0  0
  2  3  1  0  0  0  0
  3  4  2  0  0  0  0
  3  5  1  0  0  0  0
  5  6  1  0  0  0  0
  1  7  1  0  0  0  0
  1  8  1  0  0  0  0
  1  9  1  0  0  0  0
  2 10  1  0  0  0  0
  2 11  1  0  0  0  0
  6 12  1  0  0  0  0
  6 13  1  0  0  0  0
  6 14  1  0  0  0  0
M  END
