 xtb: 6.7.1 (edcfbbe)
          04062518003D

 24 24  0     0  0            999 V2000
   -2.1161   -1.1902   -0.1926 C   0  0  0  0  0  0  0  0  0  0  0  0
   -1.2550   -0.3390    0.7608 C   0  0  0  0  0  0  0  0  0  0  0  0
   -1.8413   -0.1466    1.6648 H   0  0  0  0  0  0  0  0  0  0  0  0
   -0.9057    1.0227    0.1348 C   0  0  0  0  0  0  0  0  0  0  0  0
   -1.1589    1.0088   -0.9368 H   0  0  0  0  0  0  0  0  0  0  0  0
    0.5996    1.2860    0.2522 C   0  0  0  0  0  0  0  0  0  0  0  0
    0.8601    1.3829    1.3201 H   0  0  0  0  0  0  0  0  0  0  0  0
    1.3570    0.1000   -0.3560 C   0  0  0  0  0  0  0  0  0  0  0  0
    1.0559   -0.0158   -1.4029 H   0  0  0  0  0  0  0  0  0  0  0  0
    0.9953   -1.1883    0.4088 C   0  0  0  0  0  0  0  0  0  0  0  0
    1.8131   -1.4410    1.0996 H   0  0  0  0  0  0  0  0  0  0  0  0
   -0.1123   -1.0322    1.2594 O   0  0  0  0  0  0  0  0  0  0  0  0
    0.8126   -2.2165   -0.5198 O   0  0  0  0  0  0  0  0  0  0  0  0
    2.7381    0.3430   -0.3928 O   0  0  0  0  0  0  0  0  0  0  0  0
    0.8979    2.4830   -0.4228 O   0  0  0  0  0  0  0  0  0  0  0  0
   -1.6585    2.0088    0.7963 O   0  0  0  0  0  0  0  0  0  0  0  0
   -1.6165   -1.2783   -1.5030 O   0  0  0  0  0  0  0  0  0  0  0  0
   -3.0934   -0.7114   -0.2771 H   0  0  0  0  0  0  0  0  0  0  0  0
   -2.2423   -2.1867    0.2475 H   0  0  0  0  0  0  0  0  0  0  0  0
    0.7851   -3.0772   -0.0727 H   0  0  0  0  0  0  0  0  0  0  0  0
    3.0951    0.3961    0.5070 H   0  0  0  0  0  0  0  0  0  0  0  0
    1.8247    2.4543   -0.7086 H   0  0  0  0  0  0  0  0  0  0  0  0
   -1.3998    2.8751    0.4467 H   0  0  0  0  0  0  0  0  0  0  0  0
   -0.7586   -1.7442   -1.4758 H   0  0  0  0  0  0  0  0  0  0  0  0
  1  2  1  0  0  0  0
  2  3  1  0  0  0  0
  2  4  1  0  0  0  0
  4  5  1  0  0  0  0
  4  6  1  0  0  0  0
  6  7  1  0  0  0  0
  6  8  1  0  0  0  0
  8  9  1  0  0  0  0
  8 10  1  0  0  0  0
 10 11  1  0  0  0  0
  2 12  1  0  0  0  0
 10 12  1  0  0  0  0
 10 13  1  0  0  0  0
  8 14  1  0  0  0  0
  6 15  1  0  0  0  0
  4 16  1  0  0  0  0
  1 17  1  0  0  0  0
  1 18  1  0  0  0  0
  1 19  1  0  0  0  0
 13 20  1  0  0  0  0
 14 21  1  0  0  0  0
 15 22  1  0  0  0  0
 16 23  1  0  0  0  0
 17 24  1  0  0  0  0
M  END
