 xtb: 6.7.1 (edcfbbe)
          04062518003D

 24 24  0     0  0            999 V2000
   -1.8559   -1.0857   -0.5604 C   0  0  0  0  0  0  0  0  0  0  0  0
   -1.0799   -0.5299    0.6672 C   0  0  0  0  0  0  0  0  0  0  0  0
   -1.6938   -0.6653    1.5646 H   0  0  0  0  0  0  0  0  0  0  0  0
   -0.7515    0.9668    0.5438 C   0  0  0  0  0  0  0  0  0  0  0  0
   -1.6448    1.4856    0.1728 H   0  0  0  0  0  0  0  0  0  0  0  0
    0.4036    1.1988   -0.4528 C   0  0  0  0  0  0  0  0  0  0  0  0
    0.6675    2.2640   -0.4185 H   0  0  0  0  0  0  0  0  0  0  0  0
    1.6247    0.3788   -0.0156 C   0  0  0  0  0  0  0  0  0  0  0  0
    2.3798    0.4026   -0.8105 H   0  0  0  0  0  0  0  0  0  0  0  0
    1.2302   -1.1040    0.1772 C   0  0  0  0  0  0  0  0  0  0  0  0
    2.0266   -1.5873    0.7611 H   0  0  0  0  0  0  0  0  0  0  0  0
    0.0810   -1.3085    0.9586 O   0  0  0  0  0  0  0  0  0  0  0  0
    1.1229   -1.6753   -1.0984 O   0  0  0  0  0  0  0  0  0  0  0  0
    2.2467    0.8972    1.1258 O   0  0  0  0  0  0  0  0  0  0  0  0
    0.0036    0.9033   -1.7702 O   0  0  0  0  0  0  0  0  0  0  0  0
   -0.3477    1.5128    1.7810 O   0  0  0  0  0  0  0  0  0  0  0  0
   -2.6541   -0.1306   -1.2142 O   0  0  0  0  0  0  0  0  0  0  0  0
   -2.5372   -1.8673   -0.2167 H   0  0  0  0  0  0  0  0  0  0  0  0
   -1.1451   -1.5326   -1.2593 H   0  0  0  0  0  0  0  0  0  0  0  0
    1.1199   -2.6423   -1.0369 H   0  0  0  0  0  0  0  0  0  0  0  0
    1.5608    1.1138    1.7829 H   0  0  0  0  0  0  0  0  0  0  0  0
    0.3554    0.0332   -2.0191 H   0  0  0  0  0  0  0  0  0  0  0  0
   -1.0846    1.4951    2.4079 H   0  0  0  0  0  0  0  0  0  0  0  0
   -2.0764    0.4328   -1.7574 H   0  0  0  0  0  0  0  0  0  0  0  0
  1  2  1  0  0  0  0
  2  3  1  0  0  0  0
  2  4  1  0  0  0  0
  4  5  1  0  0  0  0
  4  6  1  0  0  0  0
  6  7  1  0  0  0  0
  6  8  1  0  0  0  0
  8  9  1  0  0  0  0
  8 10  1  0  0  0  0
 10 11  1  0  0  0  0
  2 12  1  0  0  0  0
 10 12  1  0  0  0  0
 10 13  1  0  0  0  0
  8 14  1  0  0  0  0
  6 15  1  0  0  0  0
  4 16  1  0  0  0  0
  1 17  1  0  0  0  0
  1 18  1  0  0  0  0
  1 19  1  0  0  0  0
 13 20  1  0  0  0  0
 14 21  1  0  0  0  0
 15 22  1  0  0  0  0
 16 23  1  0  0  0  0
 17 24  1  0  0  0  0
M  END
