 xtb: 6.7.1 (edcfbbe)
          04062518003D

 24 24  0     0  0            999 V2000
   -2.0132   -0.5735   -0.7370 C   0  0  0  0  0  0  0  0  0  0  0  0
   -1.1887   -0.0889    0.4711 C   0  0  0  0  0  0  0  0  0  0  0  0
   -1.8538   -0.0395    1.3417 H   0  0  0  0  0  0  0  0  0  0  0  0
   -0.6069    1.3166    0.2538 C   0  0  0  0  0  0  0  0  0  0  0  0
   -1.3326    1.8826   -0.3446 H   0  0  0  0  0  0  0  0  0  0  0  0
    0.7294    1.2887   -0.5185 C   0  0  0  0  0  0  0  0  0  0  0  0
    1.1839    2.2843   -0.4331 H   0  0  0  0  0  0  0  0  0  0  0  0
    1.6908    0.2724    0.1328 C   0  0  0  0  0  0  0  0  0  0  0  0
    2.5958    0.1680   -0.4764 H   0  0  0  0  0  0  0  0  0  0  0  0
    1.0079   -1.1077    0.1905 C   0  0  0  0  0  0  0  0  0  0  0  0
    1.6097   -1.7895    0.8048 H   0  0  0  0  0  0  0  0  0  0  0  0
   -0.2222   -1.0553    0.8760 O   0  0  0  0  0  0  0  0  0  0  0  0
    0.9113   -1.6912   -1.0695 O   0  0  0  0  0  0  0  0  0  0  0  0
    2.1217    0.7014    1.3954 O   0  0  0  0  0  0  0  0  0  0  0  0
    0.4683    0.9622   -1.8671 O   0  0  0  0  0  0  0  0  0  0  0  0
   -0.4342    1.9001    1.5262 O   0  0  0  0  0  0  0  0  0  0  0  0
   -2.4896   -1.8809   -0.5401 O   0  0  0  0  0  0  0  0  0  0  0  0
   -1.4240   -0.5128   -1.6593 H   0  0  0  0  0  0  0  0  0  0  0  0
   -2.8961    0.0601   -0.8426 H   0  0  0  0  0  0  0  0  0  0  0  0
    0.6273   -1.0157   -1.7142 H   0  0  0  0  0  0  0  0  0  0  0  0
    1.3423    0.8538    1.9583 H   0  0  0  0  0  0  0  0  0  0  0  0
    1.1321    1.3668   -2.4434 H   0  0  0  0  0  0  0  0  0  0  0  0
   -0.3442    2.8608    1.4486 H   0  0  0  0  0  0  0  0  0  0  0  0
   -1.7422   -2.4340   -0.2647 H   0  0  0  0  0  0  0  0  0  0  0  0
  1  2  1  0  0  0  0
  2  3  1  0  0  0  0
  2  4  1  0  0  0  0
  4  5  1  0  0  0  0
  4  6  1  0  0  0  0
  6  7  1  0  0  0  0
  6  8  1  0  0  0  0
  8  9  1  0  0  0  0
  8 10  1  0  0  0  0
 10 11  1  0  0  0  0
  2 12  1  0  0  0  0
 10 12  1  0  0  0  0
 10 13  1  0  0  0  0
  8 14  1  0  0  0  0
  6 15  1  0  0  0  0
  4 16  1  0  0  0  0
  1 17  1  0  0  0  0
  1 18  1  0  0  0  0
  1 19  1  0  0  0  0
 13 20  1  0  0  0  0
 14 21  1  0  0  0  0
 15 22  1  0  0  0  0
 16 23  1  0  0  0  0
 17 24  1  0  0  0  0
M  END
