 xtb: 6.7.1 (edcfbbe)
          04062518003D

 24 24  0     0  0            999 V2000
   -2.4878   -0.4745   -0.2032 C   0  0  0  0  0  0  0  0  0  0  0  0
   -1.0488   -0.1969    0.2376 C   0  0  0  0  0  0  0  0  0  0  0  0
   -0.9635   -0.3872    1.3187 H   0  0  0  0  0  0  0  0  0  0  0  0
   -0.6326    1.2625   -0.0474 C   0  0  0  0  0  0  0  0  0  0  0  0
   -1.2240    1.6649   -0.8772 H   0  0  0  0  0  0  0  0  0  0  0  0
    0.8579    1.3100   -0.4670 C   0  0  0  0  0  0  0  0  0  0  0  0
    1.2277    2.3217   -0.2666 H   0  0  0  0  0  0  0  0  0  0  0  0
    1.6548    0.2917    0.3725 C   0  0  0  0  0  0  0  0  0  0  0  0
    2.6972    0.2860    0.0394 H   0  0  0  0  0  0  0  0  0  0  0  0
    1.1057   -1.1288    0.1079 C   0  0  0  0  0  0  0  0  0  0  0  0
    1.0638   -1.6572    1.0826 H   0  0  0  0  0  0  0  0  0  0  0  0
   -0.1945   -1.1023   -0.4481 O   0  0  0  0  0  0  0  0  0  0  0  0
    1.9438   -1.7625   -0.7860 O   0  0  0  0  0  0  0  0  0  0  0  0
    1.5323    0.5830    1.7468 O   0  0  0  0  0  0  0  0  0  0  0  0
    1.0390    1.1070   -1.8418 O   0  0  0  0  0  0  0  0  0  0  0  0
   -0.8956    2.0966    1.0482 O   0  0  0  0  0  0  0  0  0  0  0  0
   -2.9535   -1.7275    0.2259 O   0  0  0  0  0  0  0  0  0  0  0  0
   -2.5472   -0.3890   -1.2949 H   0  0  0  0  0  0  0  0  0  0  0  0
   -3.1394    0.2718    0.2542 H   0  0  0  0  0  0  0  0  0  0  0  0
    1.5997   -2.6431   -1.0036 H   0  0  0  0  0  0  0  0  0  0  0  0
    2.3141    1.0583    2.0590 H   0  0  0  0  0  0  0  0  0  0  0  0
    0.7990    0.1942   -2.0638 H   0  0  0  0  0  0  0  0  0  0  0  0
   -0.3463    1.8065    1.7954 H   0  0  0  0  0  0  0  0  0  0  0  0
   -2.4012   -2.4154   -0.1726 H   0  0  0  0  0  0  0  0  0  0  0  0
  1  2  1  0  0  0  0
  2  3  1  0  0  0  0
  2  4  1  0  0  0  0
  4  5  1  0  0  0  0
  4  6  1  0  0  0  0
  6  7  1  0  0  0  0
  6  8  1  0  0  0  0
  8  9  1  0  0  0  0
  8 10  1  0  0  0  0
 10 11  1  0  0  0  0
  2 12  1  0  0  0  0
 10 12  1  0  0  0  0
 10 13  1  0  0  0  0
  8 14  1  0  0  0  0
  6 15  1  0  0  0  0
  4 16  1  0  0  0  0
  1 17  1  0  0  0  0
  1 18  1  0  0  0  0
  1 19  1  0  0  0  0
 13 20  1  0  0  0  0
 14 21  1  0  0  0  0
 15 22  1  0  0  0  0
 16 23  1  0  0  0  0
 17 24  1  0  0  0  0
M  END
