 xtb: 6.7.1 (edcfbbe)
          04042519283D

 15 15  0     0  0            999 V2000
   -1.9126    1.5006    0.0073 C   0  0  0  0  0  0  0  0  0  0  0  0
   -1.6600    0.0948   -0.0006 O   0  0  0  0  0  0  0  0  0  0  0  0
   -0.4265   -0.4214   -0.0010 C   0  0  0  0  0  0  0  0  0  0  0  0
   -0.3323   -1.6359   -0.0100 O   0  0  0  0  0  0  0  0  0  0  0  0
    0.7510    0.4705    0.0086 C   0  0  0  0  0  0  0  0  0  0  0  0
    1.9790   -0.0329    0.7391 C   0  0  0  0  0  0  0  0  0  0  0  0
    1.9749   -0.0126   -0.7427 C   0  0  0  0  0  0  0  0  0  0  0  0
   -1.5031    1.9755   -0.8845 H   0  0  0  0  0  0  0  0  0  0  0  0
   -1.5141    1.9632    0.9106 H   0  0  0  0  0  0  0  0  0  0  0  0
   -2.9970    1.5830    0.0013 H   0  0  0  0  0  0  0  0  0  0  0  0
    0.5659    1.5326    0.0234 H   0  0  0  0  0  0  0  0  0  0  0  0
    2.5630    0.6974    1.2757 H   0  0  0  0  0  0  0  0  0  0  0  0
    1.8846   -0.9902    1.2284 H   0  0  0  0  0  0  0  0  0  0  0  0
    2.5557    0.7322   -1.2625 H   0  0  0  0  0  0  0  0  0  0  0  0
    1.8775   -0.9561   -1.2576 H   0  0  0  0  0  0  0  0  0  0  0  0
  1  2  1  0  0  0  0
  2  3  1  0  0  0  0
  3  4  2  0  0  0  0
  3  5  1  0  0  0  0
  5  6  1  0  0  0  0
  5  7  1  0  0  0  0
  6  7  1  0  0  0  0
  1  8  1  0  0  0  0
  1  9  1  0  0  0  0
  1 10  1  0  0  0  0
  5 11  1  0  0  0  0
  6 12  1  0  0  0  0
  6 13  1  0  0  0  0
  7 14  1  0  0  0  0
  7 15  1  0  0  0  0
M  END
