 xtb: 6.7.1 (edcfbbe)
          04062518003D

 24 24  0     0  0            999 V2000
   -2.0396   -1.3760   -0.1632 C   0  0  0  0  0  0  0  0  0  0  0  0
   -1.0232   -0.5044    0.5991 C   0  0  0  0  0  0  0  0  0  0  0  0
   -1.4726   -0.1655    1.5418 H   0  0  0  0  0  0  0  0  0  0  0  0
   -0.6679    0.7528   -0.2174 C   0  0  0  0  0  0  0  0  0  0  0  0
   -0.6070    0.5081   -1.2880 H   0  0  0  0  0  0  0  0  0  0  0  0
    0.7108    1.2526    0.2198 C   0  0  0  0  0  0  0  0  0  0  0  0
    0.7119    1.3929    1.3103 H   0  0  0  0  0  0  0  0  0  0  0  0
    1.7544    0.1843   -0.1436 C   0  0  0  0  0  0  0  0  0  0  0  0
    1.9339    0.2526   -1.2257 H   0  0  0  0  0  0  0  0  0  0  0  0
    1.2231   -1.2407    0.1408 C   0  0  0  0  0  0  0  0  0  0  0  0
    1.9849   -1.7931    0.7110 H   0  0  0  0  0  0  0  0  0  0  0  0
    0.1126   -1.2631    0.9987 O   0  0  0  0  0  0  0  0  0  0  0  0
    0.9614   -1.8504   -1.0859 O   0  0  0  0  0  0  0  0  0  0  0  0
    2.9200    0.4754    0.5856 O   0  0  0  0  0  0  0  0  0  0  0  0
    0.9917    2.4603   -0.4364 O   0  0  0  0  0  0  0  0  0  0  0  0
   -1.6232    1.7581    0.0004 O   0  0  0  0  0  0  0  0  0  0  0  0
   -3.2562   -0.6965   -0.3583 O   0  0  0  0  0  0  0  0  0  0  0  0
   -2.1846   -2.3142    0.3832 H   0  0  0  0  0  0  0  0  0  0  0  0
   -1.6506   -1.6007   -1.1594 H   0  0  0  0  0  0  0  0  0  0  0  0
    0.8020   -2.7990   -0.9627 H   0  0  0  0  0  0  0  0  0  0  0  0
    3.6728   -0.0172    0.2284 H   0  0  0  0  0  0  0  0  0  0  0  0
    1.8333    2.8045   -0.1030 H   0  0  0  0  0  0  0  0  0  0  0  0
   -2.4578    1.4724   -0.4053 H   0  0  0  0  0  0  0  0  0  0  0  0
   -3.7494   -0.6729    0.4739 H   0  0  0  0  0  0  0  0  0  0  0  0
  1  2  1  0  0  0  0
  2  3  1  0  0  0  0
  2  4  1  0  0  0  0
  4  5  1  0  0  0  0
  4  6  1  0  0  0  0
  6  7  1  0  0  0  0
  6  8  1  0  0  0  0
  8  9  1  0  0  0  0
  8 10  1  0  0  0  0
 10 11  1  0  0  0  0
  2 12  1  0  0  0  0
 10 12  1  0  0  0  0
 10 13  1  0  0  0  0
  8 14  1  0  0  0  0
  6 15  1  0  0  0  0
  4 16  1  0  0  0  0
  1 17  1  0  0  0  0
  1 18  1  0  0  0  0
  1 19  1  0  0  0  0
 13 20  1  0  0  0  0
 14 21  1  0  0  0  0
 15 22  1  0  0  0  0
 16 23  1  0  0  0  0
 17 24  1  0  0  0  0
M  END
