 xtb: 6.7.1 (edcfbbe)
          04032521143D

 24 26  0     0  0            999 V2000
    3.6336    0.7059   -0.0007 C   0  0  0  0  0  0  0  0  0  0  0  0
    3.6336   -0.7059   -0.0002 C   0  0  0  0  0  0  0  0  0  0  0  0
    2.4602   -1.3955    0.0004 C   0  0  0  0  0  0  0  0  0  0  0  0
    1.2152   -0.7153    0.0004 C   0  0  0  0  0  0  0  0  0  0  0  0
    0.0000   -1.3948    0.0003 C   0  0  0  0  0  0  0  0  0  0  0  0
   -1.2152   -0.7153    0.0001 C   0  0  0  0  0  0  0  0  0  0  0  0
   -2.4602   -1.3955   -0.0003 C   0  0  0  0  0  0  0  0  0  0  0  0
   -3.6337   -0.7058   -0.0005 C   0  0  0  0  0  0  0  0  0  0  0  0
   -3.6336    0.7059   -0.0001 C   0  0  0  0  0  0  0  0  0  0  0  0
   -2.4601    1.3955    0.0004 C   0  0  0  0  0  0  0  0  0  0  0  0
   -1.2152    0.7153    0.0003 C   0  0  0  0  0  0  0  0  0  0  0  0
    0.0000    1.3948    0.0003 C   0  0  0  0  0  0  0  0  0  0  0  0
    1.2152    0.7153    0.0002 C   0  0  0  0  0  0  0  0  0  0  0  0
    2.4602    1.3955   -0.0003 C   0  0  0  0  0  0  0  0  0  0  0  0
    4.5772    1.2309   -0.0013 H   0  0  0  0  0  0  0  0  0  0  0  0
    4.5773   -1.2309   -0.0007 H   0  0  0  0  0  0  0  0  0  0  0  0
    2.4538   -2.4760    0.0008 H   0  0  0  0  0  0  0  0  0  0  0  0
   -0.0001   -2.4760    0.0003 H   0  0  0  0  0  0  0  0  0  0  0  0
   -2.4540   -2.4760   -0.0007 H   0  0  0  0  0  0  0  0  0  0  0  0
   -4.5773   -1.2308   -0.0012 H   0  0  0  0  0  0  0  0  0  0  0  0
   -4.5771    1.2311   -0.0006 H   0  0  0  0  0  0  0  0  0  0  0  0
   -2.4537    2.4759    0.0003 H   0  0  0  0  0  0  0  0  0  0  0  0
   -0.0001    2.4760    0.0004 H   0  0  0  0  0  0  0  0  0  0  0  0
    2.4538    2.4759   -0.0005 H   0  0  0  0  0  0  0  0  0  0  0  0
  1  2  4  0  0  0  0
  2  3  2  0  0  0  0
  3  4  4  0  0  0  0
  4  5  4  0  0  0  0
  5  6  4  0  0  0  0
  6  7  4  0  0  0  0
  7  8  2  0  0  0  0
  8  9  4  0  0  0  0
  9 10  2  0  0  0  0
  6 11  1  0  0  0  0
 10 11  4  0  0  0  0
 11 12  4  0  0  0  0
  4 13  1  0  0  0  0
 12 13  4  0  0  0  0
  1 14  2  0  0  0  0
 13 14  4  0  0  0  0
  1 15  1  0  0  0  0
  2 16  1  0  0  0  0
  3 17  1  0  0  0  0
  5 18  1  0  0  0  0
  7 19  1  0  0  0  0
  8 20  1  0  0  0  0
  9 21  1  0  0  0  0
 10 22  1  0  0  0  0
 12 23  1  0  0  0  0
 14 24  1  0  0  0  0
M  END
