 xtb: 6.7.1 (edcfbbe)
          04062518003D

 24 24  0     0  0            999 V2000
   -1.9384   -0.5545   -0.7597 C   0  0  0  0  0  0  0  0  0  0  0  0
   -1.2101   -0.0682    0.5088 C   0  0  0  0  0  0  0  0  0  0  0  0
   -1.9165   -0.0211    1.3461 H   0  0  0  0  0  0  0  0  0  0  0  0
   -0.6082    1.3364    0.3232 C   0  0  0  0  0  0  0  0  0  0  0  0
   -1.3351    1.9497   -0.2199 H   0  0  0  0  0  0  0  0  0  0  0  0
    0.6928    1.3009   -0.5007 C   0  0  0  0  0  0  0  0  0  0  0  0
    1.1909    2.2723   -0.3475 H   0  0  0  0  0  0  0  0  0  0  0  0
    1.6490    0.2211    0.0457 C   0  0  0  0  0  0  0  0  0  0  0  0
    2.4584    0.0623   -0.6811 H   0  0  0  0  0  0  0  0  0  0  0  0
    0.9322   -1.1309    0.2245 C   0  0  0  0  0  0  0  0  0  0  0  0
    1.5572   -1.7866    0.8603 H   0  0  0  0  0  0  0  0  0  0  0  0
   -0.2487   -1.0188    0.9635 O   0  0  0  0  0  0  0  0  0  0  0  0
    0.7682   -1.7042   -1.0348 O   0  0  0  0  0  0  0  0  0  0  0  0
    2.1446    0.7040    1.2703 O   0  0  0  0  0  0  0  0  0  0  0  0
    0.3631    1.1180   -1.8500 O   0  0  0  0  0  0  0  0  0  0  0  0
   -0.4067    1.9748    1.5584 O   0  0  0  0  0  0  0  0  0  0  0  0
   -2.2222   -1.9318   -0.7076 O   0  0  0  0  0  0  0  0  0  0  0  0
   -1.3038   -0.4068   -1.6343 H   0  0  0  0  0  0  0  0  0  0  0  0
   -2.8537    0.0361   -0.8836 H   0  0  0  0  0  0  0  0  0  0  0  0
    0.0781   -2.3866   -0.9920 H   0  0  0  0  0  0  0  0  0  0  0  0
    2.8241    0.1087    1.6183 H   0  0  0  0  0  0  0  0  0  0  0  0
    1.1607    1.1660   -2.3964 H   0  0  0  0  0  0  0  0  0  0  0  0
    0.3644    1.5741    1.9941 H   0  0  0  0  0  0  0  0  0  0  0  0
   -2.7959   -2.1142    0.0502 H   0  0  0  0  0  0  0  0  0  0  0  0
  1  2  1  0  0  0  0
  2  3  1  0  0  0  0
  2  4  1  0  0  0  0
  4  5  1  0  0  0  0
  4  6  1  0  0  0  0
  6  7  1  0  0  0  0
  6  8  1  0  0  0  0
  8  9  1  0  0  0  0
  8 10  1  0  0  0  0
 10 11  1  0  0  0  0
  2 12  1  0  0  0  0
 10 12  1  0  0  0  0
 10 13  1  0  0  0  0
  8 14  1  0  0  0  0
  6 15  1  0  0  0  0
  4 16  1  0  0  0  0
  1 17  1  0  0  0  0
  1 18  1  0  0  0  0
  1 19  1  0  0  0  0
 13 20  1  0  0  0  0
 14 21  1  0  0  0  0
 15 22  1  0  0  0  0
 16 23  1  0  0  0  0
 17 24  1  0  0  0  0
M  END
