 xtb: 6.7.1 (edcfbbe)
          04062502133D

 24 25  0     0  0            999 V2000
   -3.6065   -1.0308    0.0331 C   0  0  0  0  0  0  0  0  0  0  0  0
   -2.1113   -1.3243   -0.0078 C   0  0  0  0  0  0  0  0  0  0  0  0
   -1.2075   -0.1177    0.0211 C   0  0  0  0  0  0  0  0  0  0  0  0
   -1.6996    1.1608    0.0816 C   0  0  0  0  0  0  0  0  0  0  0  0
   -0.8509    2.2779    0.1076 C   0  0  0  0  0  0  0  0  0  0  0  0
    0.5029    2.1178    0.0725 C   0  0  0  0  0  0  0  0  0  0  0  0
    1.0620    0.8241    0.0099 C   0  0  0  0  0  0  0  0  0  0  0  0
    0.2049   -0.3094   -0.0159 C   0  0  0  0  0  0  0  0  0  0  0  0
    0.8040   -1.5871   -0.0779 C   0  0  0  0  0  0  0  0  0  0  0  0
    2.1633   -1.7347   -0.1124 C   0  0  0  0  0  0  0  0  0  0  0  0
    3.0032   -0.6127   -0.0873 C   0  0  0  0  0  0  0  0  0  0  0  0
    2.4600    0.6391   -0.0273 C   0  0  0  0  0  0  0  0  0  0  0  0
   -3.8764   -0.5043    0.9454 H   0  0  0  0  0  0  0  0  0  0  0  0
   -4.1584   -1.9676    0.0070 H   0  0  0  0  0  0  0  0  0  0  0  0
   -3.9108   -0.4349   -0.8240 H   0  0  0  0  0  0  0  0  0  0  0  0
   -1.8941   -1.8934   -0.9165 H   0  0  0  0  0  0  0  0  0  0  0  0
   -1.8591   -1.9618    0.8446 H   0  0  0  0  0  0  0  0  0  0  0  0
   -2.7628    1.3352    0.1106 H   0  0  0  0  0  0  0  0  0  0  0  0
   -1.2851    3.2658    0.1555 H   0  0  0  0  0  0  0  0  0  0  0  0
    1.1652    2.9712    0.0917 H   0  0  0  0  0  0  0  0  0  0  0  0
    0.1809   -2.4669   -0.0983 H   0  0  0  0  0  0  0  0  0  0  0  0
    2.5989   -2.7219   -0.1595 H   0  0  0  0  0  0  0  0  0  0  0  0
    4.0744   -0.7459   -0.1155 H   0  0  0  0  0  0  0  0  0  0  0  0
    3.0945    1.5137   -0.0072 H   0  0  0  0  0  0  0  0  0  0  0  0
  1  2  1  0  0  0  0
  2  3  1  0  0  0  0
  3  4  2  0  0  0  0
  4  5  4  0  0  0  0
  5  6  2  0  0  0  0
  6  7  4  0  0  0  0
  3  8  4  0  0  0  0
  7  8  4  0  0  0  0
  8  9  4  0  0  0  0
  9 10  2  0  0  0  0
 10 11  4  0  0  0  0
  7 12  4  0  0  0  0
 11 12  2  0  0  0  0
  1 13  1  0  0  0  0
  1 14  1  0  0  0  0
  1 15  1  0  0  0  0
  2 16  1  0  0  0  0
  2 17  1  0  0  0  0
  4 18  1  0  0  0  0
  5 19  1  0  0  0  0
  6 20  1  0  0  0  0
  9 21  1  0  0  0  0
 10 22  1  0  0  0  0
 11 23  1  0  0  0  0
 12 24  1  0  0  0  0
M  END
