 xtb: 6.7.1 (edcfbbe)
          04062518003D

 24 24  0     0  0            999 V2000
   -2.3579   -1.0029    0.3499 C   0  0  0  0  0  0  0  0  0  0  0  0
   -1.0853   -0.2550    0.7933 C   0  0  0  0  0  0  0  0  0  0  0  0
   -1.3112    0.2103    1.7611 H   0  0  0  0  0  0  0  0  0  0  0  0
   -0.6719    0.8632   -0.1689 C   0  0  0  0  0  0  0  0  0  0  0  0
   -0.6665    0.5084   -1.2103 H   0  0  0  0  0  0  0  0  0  0  0  0
    0.7591    1.2944    0.1803 C   0  0  0  0  0  0  0  0  0  0  0  0
    0.7887    1.5550    1.2510 H   0  0  0  0  0  0  0  0  0  0  0  0
    1.7319    0.1272   -0.0785 C   0  0  0  0  0  0  0  0  0  0  0  0
    2.0894    0.1853   -1.1118 H   0  0  0  0  0  0  0  0  0  0  0  0
    0.9927   -1.2226    0.0717 C   0  0  0  0  0  0  0  0  0  0  0  0
    1.6979   -1.9742    0.4660 H   0  0  0  0  0  0  0  0  0  0  0  0
   -0.0150   -1.1679    1.0445 O   0  0  0  0  0  0  0  0  0  0  0  0
    0.5285   -1.6004   -1.1851 O   0  0  0  0  0  0  0  0  0  0  0  0
    2.8742    0.2058    0.7331 O   0  0  0  0  0  0  0  0  0  0  0  0
    1.0592    2.4274   -0.5983 O   0  0  0  0  0  0  0  0  0  0  0  0
   -1.5869    1.9174   -0.0177 O   0  0  0  0  0  0  0  0  0  0  0  0
   -2.2396   -1.6757   -0.8809 O   0  0  0  0  0  0  0  0  0  0  0  0
   -3.1798   -0.2817    0.3349 H   0  0  0  0  0  0  0  0  0  0  0  0
   -2.5652   -1.7759    1.0933 H   0  0  0  0  0  0  0  0  0  0  0  0
   -0.2340   -2.2028   -1.0869 H   0  0  0  0  0  0  0  0  0  0  0  0
    2.6323    0.0538    1.6587 H   0  0  0  0  0  0  0  0  0  0  0  0
    1.9686    2.7072   -0.4240 H   0  0  0  0  0  0  0  0  0  0  0  0
   -1.2104    2.7013   -0.4478 H   0  0  0  0  0  0  0  0  0  0  0  0
   -2.3333   -1.0450   -1.6077 H   0  0  0  0  0  0  0  0  0  0  0  0
  1  2  1  0  0  0  0
  2  3  1  0  0  0  0
  2  4  1  0  0  0  0
  4  5  1  0  0  0  0
  4  6  1  0  0  0  0
  6  7  1  0  0  0  0
  6  8  1  0  0  0  0
  8  9  1  0  0  0  0
  8 10  1  0  0  0  0
 10 11  1  0  0  0  0
  2 12  1  0  0  0  0
 10 12  1  0  0  0  0
 10 13  1  0  0  0  0
  8 14  1  0  0  0  0
  6 15  1  0  0  0  0
  4 16  1  0  0  0  0
  1 17  1  0  0  0  0
  1 18  1  0  0  0  0
  1 19  1  0  0  0  0
 13 20  1  0  0  0  0
 14 21  1  0  0  0  0
 15 22  1  0  0  0  0
 16 23  1  0  0  0  0
 17 24  1  0  0  0  0
M  END
