 xtb: 6.7.1 (edcfbbe)
          04062520053D

 27 27  0     0  0            999 V2000
   -3.2978    0.3960   -0.5638 C   0  0  0  0  0  0  0  0  0  0  0  0
   -1.8754    0.5001   -0.1169 C   0  0  0  0  0  0  0  0  0  0  0  0
   -1.1087    1.5734   -0.2692 C   0  0  0  0  0  0  0  0  0  0  0  0
    0.3148    1.5176    0.1857 C   0  0  0  0  0  0  0  0  0  0  0  0
    0.9491    0.2484   -0.4057 C   0  0  0  0  0  0  0  0  0  0  0  0
    0.8783    0.3477   -1.4949 H   0  0  0  0  0  0  0  0  0  0  0  0
    0.1447   -1.0021    0.0130 C   0  0  0  0  0  0  0  0  0  0  0  0
   -1.2468   -0.6743    0.6005 C   0  0  0  0  0  0  0  0  0  0  0  0
   -1.1184   -0.3907    1.6546 H   0  0  0  0  0  0  0  0  0  0  0  0
   -2.0593   -1.8274    0.6573 O   0  0  0  0  0  0  0  0  0  0  0  0
    2.4084    0.0598   -0.0627 C   0  0  0  0  0  0  0  0  0  0  0  0
    3.0016    0.5969    0.9910 C   0  0  0  0  0  0  0  0  0  0  0  0
    3.1538   -0.8250   -1.0182 C   0  0  0  0  0  0  0  0  0  0  0  0
   -3.6919    1.3798   -0.8026 H   0  0  0  0  0  0  0  0  0  0  0  0
   -3.9025   -0.0571    0.2198 H   0  0  0  0  0  0  0  0  0  0  0  0
   -3.3756   -0.2296   -1.4530 H   0  0  0  0  0  0  0  0  0  0  0  0
   -1.4733    2.4695   -0.7473 H   0  0  0  0  0  0  0  0  0  0  0  0
    0.8714    2.3962   -0.1384 H   0  0  0  0  0  0  0  0  0  0  0  0
    0.3490    1.4686    1.2771 H   0  0  0  0  0  0  0  0  0  0  0  0
   -0.0016   -1.6500   -0.8535 H   0  0  0  0  0  0  0  0  0  0  0  0
    0.6990   -1.5727    0.7605 H   0  0  0  0  0  0  0  0  0  0  0  0
   -2.2080   -2.1507   -0.2420 H   0  0  0  0  0  0  0  0  0  0  0  0
    4.0431    0.4158    1.1984 H   0  0  0  0  0  0  0  0  0  0  0  0
    2.4907    1.2349    1.6895 H   0  0  0  0  0  0  0  0  0  0  0  0
    3.1647   -0.3774   -2.0111 H   0  0  0  0  0  0  0  0  0  0  0  0
    4.1792   -0.9750   -0.6923 H   0  0  0  0  0  0  0  0  0  0  0  0
    2.6643   -1.7941   -1.0960 H   0  0  0  0  0  0  0  0  0  0  0  0
  1  2  1  0  0  0  0
  2  3  2  0  0  0  0
  3  4  1  0  0  0  0
  4  5  1  0  0  0  0
  5  6  1  0  0  0  0
  5  7  1  0  0  0  0
  2  8  1  0  0  0  0
  7  8  1  0  0  0  0
  8  9  1  0  0  0  0
  8 10  1  0  0  0  0
  5 11  1  0  0  0  0
 11 12  2  0  0  0  0
 11 13  1  0  0  0  0
  1 14  1  0  0  0  0
  1 15  1  0  0  0  0
  1 16  1  0  0  0  0
  3 17  1  0  0  0  0
  4 18  1  0  0  0  0
  4 19  1  0  0  0  0
  7 20  1  0  0  0  0
  7 21  1  0  0  0  0
 10 22  1  0  0  0  0
 12 23  1  0  0  0  0
 12 24  1  0  0  0  0
 13 25  1  0  0  0  0
 13 26  1  0  0  0  0
 13 27  1  0  0  0  0
M  END
