 xtb: 6.7.1 (edcfbbe)
          04062518003D

 24 24  0     0  0            999 V2000
   -2.2528   -1.1442    0.0918 C   0  0  0  0  0  0  0  0  0  0  0  0
   -0.8642   -0.5649    0.3983 C   0  0  0  0  0  0  0  0  0  0  0  0
   -0.8283   -0.2815    1.4602 H   0  0  0  0  0  0  0  0  0  0  0  0
   -0.5597    0.6723   -0.4525 C   0  0  0  0  0  0  0  0  0  0  0  0
   -0.5139    0.3579   -1.5079 H   0  0  0  0  0  0  0  0  0  0  0  0
    0.8112    1.2612   -0.0582 C   0  0  0  0  0  0  0  0  0  0  0  0
    0.6572    1.9978    0.7382 H   0  0  0  0  0  0  0  0  0  0  0  0
    1.7435    0.1688    0.5044 C   0  0  0  0  0  0  0  0  0  0  0  0
    2.7731    0.4305    0.2215 H   0  0  0  0  0  0  0  0  0  0  0  0
    1.3938   -1.1762   -0.1534 C   0  0  0  0  0  0  0  0  0  0  0  0
    2.0408   -1.9772    0.2370 H   0  0  0  0  0  0  0  0  0  0  0  0
    0.0870   -1.5959    0.1479 O   0  0  0  0  0  0  0  0  0  0  0  0
    1.5892   -1.0165   -1.5280 O   0  0  0  0  0  0  0  0  0  0  0  0
    1.5941    0.1290    1.8978 O   0  0  0  0  0  0  0  0  0  0  0  0
    1.3990    1.9528   -1.1289 O   0  0  0  0  0  0  0  0  0  0  0  0
   -1.5994    1.6034   -0.2751 O   0  0  0  0  0  0  0  0  0  0  0  0
   -3.2852   -0.4278    0.7123 O   0  0  0  0  0  0  0  0  0  0  0  0
   -2.2934   -2.1618    0.4860 H   0  0  0  0  0  0  0  0  0  0  0  0
   -2.4005   -1.1806   -0.9962 H   0  0  0  0  0  0  0  0  0  0  0  0
    1.4382   -1.8584   -1.9848 H   0  0  0  0  0  0  0  0  0  0  0  0
    2.2487   -0.4667    2.2907 H   0  0  0  0  0  0  0  0  0  0  0  0
    1.6329    1.3148   -1.8217 H   0  0  0  0  0  0  0  0  0  0  0  0
   -1.3873    2.4109   -0.7658 H   0  0  0  0  0  0  0  0  0  0  0  0
   -3.1894    0.5079    0.4681 H   0  0  0  0  0  0  0  0  0  0  0  0
  1  2  1  0  0  0  0
  2  3  1  0  0  0  0
  2  4  1  0  0  0  0
  4  5  1  0  0  0  0
  4  6  1  0  0  0  0
  6  7  1  0  0  0  0
  6  8  1  0  0  0  0
  8  9  1  0  0  0  0
  8 10  1  0  0  0  0
 10 11  1  0  0  0  0
  2 12  1  0  0  0  0
 10 12  1  0  0  0  0
 10 13  1  0  0  0  0
  8 14  1  0  0  0  0
  6 15  1  0  0  0  0
  4 16  1  0  0  0  0
  1 17  1  0  0  0  0
  1 18  1  0  0  0  0
  1 19  1  0  0  0  0
 13 20  1  0  0  0  0
 14 21  1  0  0  0  0
 15 22  1  0  0  0  0
 16 23  1  0  0  0  0
 17 24  1  0  0  0  0
M  END
