 xtb: 6.7.1 (edcfbbe)
          04042519283D

 15 15  0     0  0            999 V2000
   -2.2263    0.9241    0.0004 C   0  0  0  0  0  0  0  0  0  0  0  0
   -0.8111    0.7387   -0.0006 O   0  0  0  0  0  0  0  0  0  0  0  0
   -0.3596   -0.5151    0.0000 C   0  0  0  0  0  0  0  0  0  0  0  0
   -1.1013   -1.4820   -0.0001 O   0  0  0  0  0  0  0  0  0  0  0  0
    1.1105   -0.6066   -0.0005 C   0  0  0  0  0  0  0  0  0  0  0  0
    1.9237    0.4319   -0.7413 C   0  0  0  0  0  0  0  0  0  0  0  0
    1.9235    0.4309    0.7421 C   0  0  0  0  0  0  0  0  0  0  0  0
   -2.3800    1.9977   -0.0473 H   0  0  0  0  0  0  0  0  0  0  0  0
   -2.6574    0.5065    0.9112 H   0  0  0  0  0  0  0  0  0  0  0  0
   -2.6705    0.4242   -0.8613 H   0  0  0  0  0  0  0  0  0  0  0  0
    1.4562   -1.6312   -0.0010 H   0  0  0  0  0  0  0  0  0  0  0  0
    2.7980    0.0807   -1.2654 H   0  0  0  0  0  0  0  0  0  0  0  0
    1.3748    1.2085   -1.2496 H   0  0  0  0  0  0  0  0  0  0  0  0
    2.7976    0.0791    1.2659 H   0  0  0  0  0  0  0  0  0  0  0  0
    1.3742    1.2067    1.2513 H   0  0  0  0  0  0  0  0  0  0  0  0
  1  2  1  0  0  0  0
  2  3  1  0  0  0  0
  3  4  2  0  0  0  0
  3  5  1  0  0  0  0
  5  6  1  0  0  0  0
  5  7  1  0  0  0  0
  6  7  1  0  0  0  0
  1  8  1  0  0  0  0
  1  9  1  0  0  0  0
  1 10  1  0  0  0  0
  5 11  1  0  0  0  0
  6 12  1  0  0  0  0
  6 13  1  0  0  0  0
  7 14  1  0  0  0  0
  7 15  1  0  0  0  0
M  END
