 xtb: 6.7.1 (edcfbbe)
          04062518003D

 24 24  0     0  0            999 V2000
   -1.7925   -1.0145   -0.7297 C   0  0  0  0  0  0  0  0  0  0  0  0
   -1.0469   -0.4740    0.5010 C   0  0  0  0  0  0  0  0  0  0  0  0
   -1.7353   -0.5860    1.3484 H   0  0  0  0  0  0  0  0  0  0  0  0
   -0.7021    1.0173    0.3484 C   0  0  0  0  0  0  0  0  0  0  0  0
   -1.5299    1.4955   -0.1937 H   0  0  0  0  0  0  0  0  0  0  0  0
    0.5924    1.2409   -0.4565 C   0  0  0  0  0  0  0  0  0  0  0  0
    0.8733    2.2910   -0.3068 H   0  0  0  0  0  0  0  0  0  0  0  0
    1.7265    0.3578    0.1028 C   0  0  0  0  0  0  0  0  0  0  0  0
    2.5960    0.4040   -0.5634 H   0  0  0  0  0  0  0  0  0  0  0  0
    1.2568   -1.1128    0.1394 C   0  0  0  0  0  0  0  0  0  0  0  0
    1.9829   -1.7176    0.6962 H   0  0  0  0  0  0  0  0  0  0  0  0
    0.0692   -1.2666    0.8816 O   0  0  0  0  0  0  0  0  0  0  0  0
    1.1794   -1.6553   -1.1407 O   0  0  0  0  0  0  0  0  0  0  0  0
    2.1740    0.8038    1.3531 O   0  0  0  0  0  0  0  0  0  0  0  0
    0.3515    0.9573   -1.8182 O   0  0  0  0  0  0  0  0  0  0  0  0
   -0.4983    1.6379    1.5987 O   0  0  0  0  0  0  0  0  0  0  0  0
   -3.1295   -0.5720   -0.6244 O   0  0  0  0  0  0  0  0  0  0  0  0
   -1.7306   -2.1093   -0.7086 H   0  0  0  0  0  0  0  0  0  0  0  0
   -1.3408   -0.6396   -1.6531 H   0  0  0  0  0  0  0  0  0  0  0  0
    0.7865   -0.9968   -1.7436 H   0  0  0  0  0  0  0  0  0  0  0  0
    1.4021    0.9685    1.9223 H   0  0  0  0  0  0  0  0  0  0  0  0
    0.9201    1.5061   -2.3764 H   0  0  0  0  0  0  0  0  0  0  0  0
   -1.3194    1.6228    2.1104 H   0  0  0  0  0  0  0  0  0  0  0  0
   -3.6354   -0.9090   -1.3768 H   0  0  0  0  0  0  0  0  0  0  0  0
  1  2  1  0  0  0  0
  2  3  1  0  0  0  0
  2  4  1  0  0  0  0
  4  5  1  0  0  0  0
  4  6  1  0  0  0  0
  6  7  1  0  0  0  0
  6  8  1  0  0  0  0
  8  9  1  0  0  0  0
  8 10  1  0  0  0  0
 10 11  1  0  0  0  0
  2 12  1  0  0  0  0
 10 12  1  0  0  0  0
 10 13  1  0  0  0  0
  8 14  1  0  0  0  0
  6 15  1  0  0  0  0
  4 16  1  0  0  0  0
  1 17  1  0  0  0  0
  1 18  1  0  0  0  0
  1 19  1  0  0  0  0
 13 20  1  0  0  0  0
 14 21  1  0  0  0  0
 15 22  1  0  0  0  0
 16 23  1  0  0  0  0
 17 24  1  0  0  0  0
M  END
