 xtb: 6.7.1 (edcfbbe)
          04062518003D

 24 24  0     0  0            999 V2000
   -2.3084   -0.6453   -0.8232 C   0  0  0  0  0  0  0  0  0  0  0  0
   -1.1279   -0.5346    0.1427 C   0  0  0  0  0  0  0  0  0  0  0  0
   -1.4215   -0.9721    1.1101 H   0  0  0  0  0  0  0  0  0  0  0  0
   -0.7183    0.9250    0.4211 C   0  0  0  0  0  0  0  0  0  0  0  0
   -1.5475    1.5846    0.1288 H   0  0  0  0  0  0  0  0  0  0  0  0
    0.5281    1.2773   -0.4209 C   0  0  0  0  0  0  0  0  0  0  0  0
    0.8269    2.3114   -0.2182 H   0  0  0  0  0  0  0  0  0  0  0  0
    1.7031    0.3624   -0.0258 C   0  0  0  0  0  0  0  0  0  0  0  0
    2.3729    0.2738   -0.8943 H   0  0  0  0  0  0  0  0  0  0  0  0
    1.1598   -1.0489    0.2905 C   0  0  0  0  0  0  0  0  0  0  0  0
    0.9610   -1.1161    1.3780 H   0  0  0  0  0  0  0  0  0  0  0  0
   -0.0515   -1.2765   -0.4077 O   0  0  0  0  0  0  0  0  0  0  0  0
    2.0882   -1.9830   -0.1247 O   0  0  0  0  0  0  0  0  0  0  0  0
    2.3711    0.9375    1.0635 O   0  0  0  0  0  0  0  0  0  0  0  0
    0.2561    1.2118   -1.7966 O   0  0  0  0  0  0  0  0  0  0  0  0
   -0.4681    1.0324    1.8011 O   0  0  0  0  0  0  0  0  0  0  0  0
   -3.4558   -0.1636   -0.1661 O   0  0  0  0  0  0  0  0  0  0  0  0
   -2.4177   -1.7015   -1.0980 H   0  0  0  0  0  0  0  0  0  0  0  0
   -2.0975   -0.0568   -1.7240 H   0  0  0  0  0  0  0  0  0  0  0  0
    1.7069   -2.8736   -0.0750 H   0  0  0  0  0  0  0  0  0  0  0  0
    3.1560    0.4140    1.2786 H   0  0  0  0  0  0  0  0  0  0  0  0
    0.1809    0.2789   -2.0513 H   0  0  0  0  0  0  0  0  0  0  0  0
   -0.1513    1.9223    2.0118 H   0  0  0  0  0  0  0  0  0  0  0  0
   -4.2164   -0.2367   -0.7606 H   0  0  0  0  0  0  0  0  0  0  0  0
  1  2  1  0  0  0  0
  2  3  1  0  0  0  0
  2  4  1  0  0  0  0
  4  5  1  0  0  0  0
  4  6  1  0  0  0  0
  6  7  1  0  0  0  0
  6  8  1  0  0  0  0
  8  9  1  0  0  0  0
  8 10  1  0  0  0  0
 10 11  1  0  0  0  0
  2 12  1  0  0  0  0
 10 12  1  0  0  0  0
 10 13  1  0  0  0  0
  8 14  1  0  0  0  0
  6 15  1  0  0  0  0
  4 16  1  0  0  0  0
  1 17  1  0  0  0  0
  1 18  1  0  0  0  0
  1 19  1  0  0  0  0
 13 20  1  0  0  0  0
 14 21  1  0  0  0  0
 15 22  1  0  0  0  0
 16 23  1  0  0  0  0
 17 24  1  0  0  0  0
M  END
