 xtb: 6.7.1 (edcfbbe)
          04042521533D

 17 16  0     0  0            999 V2000
   -1.6939    0.9467   -0.3442 C   0  0  0  0  0  0  0  0  0  0  0  0
   -1.0422   -0.2279    0.3796 C   0  0  0  0  0  0  0  0  0  0  0  0
    0.5070   -0.2284    0.4439 C   0  0  0  0  0  0  0  0  0  0  0  0
    1.0588   -1.5087   -0.1852 C   0  0  0  0  0  0  0  0  0  0  0  0
    1.1690    0.9814   -0.2146 C   0  0  0  0  0  0  0  0  0  0  0  0
   -2.7742    0.8183   -0.3337 H   0  0  0  0  0  0  0  0  0  0  0  0
   -1.3714    0.9999   -1.3800 H   0  0  0  0  0  0  0  0  0  0  0  0
   -1.4630    1.8903    0.1423 H   0  0  0  0  0  0  0  0  0  0  0  0
   -1.4372   -0.2582    1.3973 H   0  0  0  0  0  0  0  0  0  0  0  0
   -1.3690   -1.1457   -0.1137 H   0  0  0  0  0  0  0  0  0  0  0  0
    0.8020   -0.2228    1.4994 H   0  0  0  0  0  0  0  0  0  0  0  0
    2.1425   -1.5424   -0.0962 H   0  0  0  0  0  0  0  0  0  0  0  0
    0.8004   -1.5515   -1.2413 H   0  0  0  0  0  0  0  0  0  0  0  0
    0.6486   -2.3873    0.3078 H   0  0  0  0  0  0  0  0  0  0  0  0
    2.2477    0.9155   -0.0887 H   0  0  0  0  0  0  0  0  0  0  0  0
    0.8342    1.9103    0.2380 H   0  0  0  0  0  0  0  0  0  0  0  0
    0.9554    1.0124   -1.2796 H   0  0  0  0  0  0  0  0  0  0  0  0
  1  2  1  0  0  0  0
  2  3  1  0  0  0  0
  3  4  1  0  0  0  0
  3  5  1  0  0  0  0
  1  6  1  0  0  0  0
  1  7  1  0  0  0  0
  1  8  1  0  0  0  0
  2  9  1  0  0  0  0
  2 10  1  0  0  0  0
  3 11  1  0  0  0  0
  4 12  1  0  0  0  0
  4 13  1  0  0  0  0
  4 14  1  0  0  0  0
  5 15  1  0  0  0  0
  5 16  1  0  0  0  0
  5 17  1  0  0  0  0
M  END
