 xtb: 6.7.1 (edcfbbe)
          04062518003D

 24 24  0     0  0            999 V2000
   -1.9546   -1.2516   -0.3505 C   0  0  0  0  0  0  0  0  0  0  0  0
   -1.2660   -0.4113    0.7386 C   0  0  0  0  0  0  0  0  0  0  0  0
   -1.9411   -0.3434    1.5977 H   0  0  0  0  0  0  0  0  0  0  0  0
   -0.9835    1.0257    0.2575 C   0  0  0  0  0  0  0  0  0  0  0  0
   -1.3911    1.1430   -0.7583 H   0  0  0  0  0  0  0  0  0  0  0  0
    0.5276    1.2804    0.2007 C   0  0  0  0  0  0  0  0  0  0  0  0
    0.9044    1.4302    1.2192 H   0  0  0  0  0  0  0  0  0  0  0  0
    1.2438    0.0747   -0.4198 C   0  0  0  0  0  0  0  0  0  0  0  0
    0.8221   -0.1384   -1.4139 H   0  0  0  0  0  0  0  0  0  0  0  0
    1.0192   -1.1581    0.4653 C   0  0  0  0  0  0  0  0  0  0  0  0
    1.8631   -1.2266    1.1688 H   0  0  0  0  0  0  0  0  0  0  0  0
   -0.1142   -1.0340    1.2929 O   0  0  0  0  0  0  0  0  0  0  0  0
    0.9537   -2.2858   -0.3450 O   0  0  0  0  0  0  0  0  0  0  0  0
    2.6277    0.3025   -0.5144 O   0  0  0  0  0  0  0  0  0  0  0  0
    0.8371    2.4617   -0.4981 O   0  0  0  0  0  0  0  0  0  0  0  0
   -1.6289    1.9177    1.1356 O   0  0  0  0  0  0  0  0  0  0  0  0
   -1.3979   -0.9882   -1.6204 O   0  0  0  0  0  0  0  0  0  0  0  0
   -3.0202   -0.9875   -0.3511 H   0  0  0  0  0  0  0  0  0  0  0  0
   -1.8432   -2.3066   -0.0829 H   0  0  0  0  0  0  0  0  0  0  0  0
    1.0117   -3.0879    0.1960 H   0  0  0  0  0  0  0  0  0  0  0  0
    2.7632    1.2345   -0.7559 H   0  0  0  0  0  0  0  0  0  0  0  0
    0.4924    2.3998   -1.4026 H   0  0  0  0  0  0  0  0  0  0  0  0
   -1.3469    2.8223    0.9307 H   0  0  0  0  0  0  0  0  0  0  0  0
   -1.7476   -1.6285   -2.2555 H   0  0  0  0  0  0  0  0  0  0  0  0
  1  2  1  0  0  0  0
  2  3  1  0  0  0  0
  2  4  1  0  0  0  0
  4  5  1  0  0  0  0
  4  6  1  0  0  0  0
  6  7  1  0  0  0  0
  6  8  1  0  0  0  0
  8  9  1  0  0  0  0
  8 10  1  0  0  0  0
 10 11  1  0  0  0  0
  2 12  1  0  0  0  0
 10 12  1  0  0  0  0
 10 13  1  0  0  0  0
  8 14  1  0  0  0  0
  6 15  1  0  0  0  0
  4 16  1  0  0  0  0
  1 17  1  0  0  0  0
  1 18  1  0  0  0  0
  1 19  1  0  0  0  0
 13 20  1  0  0  0  0
 14 21  1  0  0  0  0
 15 22  1  0  0  0  0
 16 23  1  0  0  0  0
 17 24  1  0  0  0  0
M  END
