 xtb: 6.7.1 (edcfbbe)
          04032521003D

 24 25  0     0  0            999 V2000
   -3.0376   -1.4579   -0.0009 C   0  0  0  0  0  0  0  0  0  0  0  0
   -1.7404   -0.7098    0.0001 C   0  0  0  0  0  0  0  0  0  0  0  0
   -0.5471   -1.3827    0.0004 C   0  0  0  0  0  0  0  0  0  0  0  0
    0.6906   -0.7089    0.0004 C   0  0  0  0  0  0  0  0  0  0  0  0
    1.9239   -1.3922    0.0004 C   0  0  0  0  0  0  0  0  0  0  0  0
    3.1040   -0.7019   -0.0001 C   0  0  0  0  0  0  0  0  0  0  0  0
    3.1040    0.7019   -0.0006 C   0  0  0  0  0  0  0  0  0  0  0  0
    1.9239    1.3922   -0.0004 C   0  0  0  0  0  0  0  0  0  0  0  0
    0.6906    0.7089    0.0001 C   0  0  0  0  0  0  0  0  0  0  0  0
   -0.5471    1.3827    0.0003 C   0  0  0  0  0  0  0  0  0  0  0  0
   -1.7404    0.7098    0.0003 C   0  0  0  0  0  0  0  0  0  0  0  0
   -3.0376    1.4580    0.0002 C   0  0  0  0  0  0  0  0  0  0  0  0
   -3.6274   -1.2017    0.8779 H   0  0  0  0  0  0  0  0  0  0  0  0
   -3.6253   -1.2027   -0.8814 H   0  0  0  0  0  0  0  0  0  0  0  0
   -2.8607   -2.5301   -0.0001 H   0  0  0  0  0  0  0  0  0  0  0  0
   -0.5392   -2.4643    0.0004 H   0  0  0  0  0  0  0  0  0  0  0  0
    1.9191   -2.4731    0.0007 H   0  0  0  0  0  0  0  0  0  0  0  0
    4.0457   -1.2310   -0.0001 H   0  0  0  0  0  0  0  0  0  0  0  0
    4.0456    1.2311   -0.0010 H   0  0  0  0  0  0  0  0  0  0  0  0
    1.9191    2.4731   -0.0006 H   0  0  0  0  0  0  0  0  0  0  0  0
   -0.5393    2.4642    0.0003 H   0  0  0  0  0  0  0  0  0  0  0  0
   -3.6273    1.2009    0.8787 H   0  0  0  0  0  0  0  0  0  0  0  0
   -2.8604    2.5301    0.0021 H   0  0  0  0  0  0  0  0  0  0  0  0
   -3.6253    1.2038   -0.8805 H   0  0  0  0  0  0  0  0  0  0  0  0
  1  2  1  0  0  0  0
  2  3  2  0  0  0  0
  3  4  4  0  0  0  0
  4  5  4  0  0  0  0
  5  6  2  0  0  0  0
  6  7  4  0  0  0  0
  7  8  2  0  0  0  0
  4  9  4  0  0  0  0
  8  9  4  0  0  0  0
  9 10  4  0  0  0  0
  2 11  4  0  0  0  0
 10 11  2  0  0  0  0
 11 12  1  0  0  0  0
  1 13  1  0  0  0  0
  1 14  1  0  0  0  0
  1 15  1  0  0  0  0
  3 16  1  0  0  0  0
  5 17  1  0  0  0  0
  6 18  1  0  0  0  0
  7 19  1  0  0  0  0
  8 20  1  0  0  0  0
 10 21  1  0  0  0  0
 12 22  1  0  0  0  0
 12 23  1  0  0  0  0
 12 24  1  0  0  0  0
M  END
