 xtb: 6.7.1 (edcfbbe)
          04062508313D

 24 24  0     0  0            999 V2000
   -2.8015   -0.0797    1.3043 C   0  0  0  0  0  0  0  0  0  0  0  0
   -1.4865    0.1123    0.7786 O   0  0  0  0  0  0  0  0  0  0  0  0
   -1.2963   -0.1635   -0.5052 C   0  0  0  0  0  0  0  0  0  0  0  0
   -2.1869   -0.5634   -1.2296 O   0  0  0  0  0  0  0  0  0  0  0  0
    0.1352    0.0181   -0.9501 C   0  0  0  0  0  0  0  0  0  0  0  0
    0.9529   -1.1902   -0.4376 C   0  0  0  0  0  0  0  0  0  0  0  0
    1.5877   -0.8746    0.9105 C   0  0  0  0  0  0  0  0  0  0  0  0
    2.6395    0.2312    0.7588 C   0  0  0  0  0  0  0  0  0  0  0  0
    2.2544    1.2205   -0.3483 C   0  0  0  0  0  0  0  0  0  0  0  0
    0.7381    1.3414   -0.4535 C   0  0  0  0  0  0  0  0  0  0  0  0
   -3.5229    0.4953    0.7226 H   0  0  0  0  0  0  0  0  0  0  0  0
   -2.7609    0.2673    2.3320 H   0  0  0  0  0  0  0  0  0  0  0  0
   -3.0709   -1.1355    1.2575 H   0  0  0  0  0  0  0  0  0  0  0  0
    0.1197   -0.0065   -2.0434 H   0  0  0  0  0  0  0  0  0  0  0  0
    0.3037   -2.0655   -0.3638 H   0  0  0  0  0  0  0  0  0  0  0  0
    1.7349   -1.4228   -1.1606 H   0  0  0  0  0  0  0  0  0  0  0  0
    0.8048   -0.5595    1.6013 H   0  0  0  0  0  0  0  0  0  0  0  0
    2.0497   -1.7731    1.3212 H   0  0  0  0  0  0  0  0  0  0  0  0
    2.7408    0.7584    1.7083 H   0  0  0  0  0  0  0  0  0  0  0  0
    3.6092   -0.2095    0.5233 H   0  0  0  0  0  0  0  0  0  0  0  0
    2.6887    2.1983   -0.1390 H   0  0  0  0  0  0  0  0  0  0  0  0
    2.6488    0.8849   -1.3087 H   0  0  0  0  0  0  0  0  0  0  0  0
    0.3298    1.5882    0.5265 H   0  0  0  0  0  0  0  0  0  0  0  0
    0.4672    2.1424   -1.1426 H   0  0  0  0  0  0  0  0  0  0  0  0
  1  2  1  0  0  0  0
  2  3  1  0  0  0  0
  3  4  2  0  0  0  0
  3  5  1  0  0  0  0
  5  6  1  0  0  0  0
  6  7  1  0  0  0  0
  7  8  1  0  0  0  0
  8  9  1  0  0  0  0
  5 10  1  0  0  0  0
  9 10  1  0  0  0  0
  1 11  1  0  0  0  0
  1 12  1  0  0  0  0
  1 13  1  0  0  0  0
  5 14  1  0  0  0  0
  6 15  1  0  0  0  0
  6 16  1  0  0  0  0
  7 17  1  0  0  0  0
  7 18  1  0  0  0  0
  8 19  1  0  0  0  0
  8 20  1  0  0  0  0
  9 21  1  0  0  0  0
  9 22  1  0  0  0  0
 10 23  1  0  0  0  0
 10 24  1  0  0  0  0
M  END
