 xtb: 6.7.1 (edcfbbe)
          04042521543D

 16 15  0     0  0            999 V2000
    1.7139    0.9431   -0.0013 C   0  0  0  0  0  0  0  0  0  0  0  0
    0.7132   -0.1778    0.0001 C   0  0  0  0  0  0  0  0  0  0  0  0
    1.1331   -1.4425    0.0014 C   0  0  0  0  0  0  0  0  0  0  0  0
   -0.7132    0.1779    0.0001 C   0  0  0  0  0  0  0  0  0  0  0  0
   -1.1331    1.4425    0.0014 C   0  0  0  0  0  0  0  0  0  0  0  0
   -1.7138   -0.9431   -0.0013 C   0  0  0  0  0  0  0  0  0  0  0  0
    1.5851    1.5678   -0.8832 H   0  0  0  0  0  0  0  0  0  0  0  0
    2.7252    0.5459   -0.0030 H   0  0  0  0  0  0  0  0  0  0  0  0
    1.5880    1.5673    0.8813 H   0  0  0  0  0  0  0  0  0  0  0  0
    0.4671   -2.2857    0.0022 H   0  0  0  0  0  0  0  0  0  0  0  0
    2.1842   -1.6784    0.0011 H   0  0  0  0  0  0  0  0  0  0  0  0
   -2.1842    1.6784    0.0010 H   0  0  0  0  0  0  0  0  0  0  0  0
   -0.4672    2.2857    0.0020 H   0  0  0  0  0  0  0  0  0  0  0  0
   -1.5856   -1.5674   -0.8837 H   0  0  0  0  0  0  0  0  0  0  0  0
   -1.5874   -1.5678    0.8809 H   0  0  0  0  0  0  0  0  0  0  0  0
   -2.7252   -0.5460   -0.0022 H   0  0  0  0  0  0  0  0  0  0  0  0
  1  2  1  0  0  0  0
  2  3  2  0  0  0  0
  2  4  1  0  0  0  0
  4  5  2  0  0  0  0
  4  6  1  0  0  0  0
  1  7  1  0  0  0  0
  1  8  1  0  0  0  0
  1  9  1  0  0  0  0
  3 10  1  0  0  0  0
  3 11  1  0  0  0  0
  5 12  1  0  0  0  0
  5 13  1  0  0  0  0
  6 14  1  0  0  0  0
  6 15  1  0  0  0  0
  6 16  1  0  0  0  0
M  END
