 xtb: 6.7.1 (edcfbbe)
          04062518003D

 24 24  0     0  0            999 V2000
   -2.4834   -0.4771   -0.2287 C   0  0  0  0  0  0  0  0  0  0  0  0
   -1.0419   -0.2076    0.2133 C   0  0  0  0  0  0  0  0  0  0  0  0
   -0.9490   -0.3994    1.2946 H   0  0  0  0  0  0  0  0  0  0  0  0
   -0.6238    1.2574   -0.0549 C   0  0  0  0  0  0  0  0  0  0  0  0
   -1.2109    1.6662   -0.8845 H   0  0  0  0  0  0  0  0  0  0  0  0
    0.8662    1.3019   -0.4675 C   0  0  0  0  0  0  0  0  0  0  0  0
    1.2466    2.3067   -0.2544 H   0  0  0  0  0  0  0  0  0  0  0  0
    1.6639    0.2809    0.3661 C   0  0  0  0  0  0  0  0  0  0  0  0
    2.7047    0.2898    0.0244 H   0  0  0  0  0  0  0  0  0  0  0  0
    1.1079   -1.1415    0.1007 C   0  0  0  0  0  0  0  0  0  0  0  0
    1.0351   -1.6738    1.0739 H   0  0  0  0  0  0  0  0  0  0  0  0
   -0.1814   -1.0994   -0.4772 O   0  0  0  0  0  0  0  0  0  0  0  0
    1.9550   -1.7947   -0.7700 O   0  0  0  0  0  0  0  0  0  0  0  0
    1.5436    0.6411    1.7206 O   0  0  0  0  0  0  0  0  0  0  0  0
    1.0480    1.1065   -1.8423 O   0  0  0  0  0  0  0  0  0  0  0  0
   -0.8938    2.0777    1.0499 O   0  0  0  0  0  0  0  0  0  0  0  0
   -2.9936   -1.6984    0.2394 O   0  0  0  0  0  0  0  0  0  0  0  0
   -2.5107   -0.5415   -1.3178 H   0  0  0  0  0  0  0  0  0  0  0  0
   -3.1021    0.3655    0.1019 H   0  0  0  0  0  0  0  0  0  0  0  0
    1.5604   -2.6382   -1.0425 H   0  0  0  0  0  0  0  0  0  0  0  0
    2.3017    0.3185    2.2271 H   0  0  0  0  0  0  0  0  0  0  0  0
    0.7715    0.2061   -2.0737 H   0  0  0  0  0  0  0  0  0  0  0  0
   -0.2620    1.8635    1.7562 H   0  0  0  0  0  0  0  0  0  0  0  0
   -3.0817   -1.6674    1.2029 H   0  0  0  0  0  0  0  0  0  0  0  0
  1  2  1  0  0  0  0
  2  3  1  0  0  0  0
  2  4  1  0  0  0  0
  4  5  1  0  0  0  0
  4  6  1  0  0  0  0
  6  7  1  0  0  0  0
  6  8  1  0  0  0  0
  8  9  1  0  0  0  0
  8 10  1  0  0  0  0
 10 11  1  0  0  0  0
  2 12  1  0  0  0  0
 10 12  1  0  0  0  0
 10 13  1  0  0  0  0
  8 14  1  0  0  0  0
  6 15  1  0  0  0  0
  4 16  1  0  0  0  0
  1 17  1  0  0  0  0
  1 18  1  0  0  0  0
  1 19  1  0  0  0  0
 13 20  1  0  0  0  0
 14 21  1  0  0  0  0
 15 22  1  0  0  0  0
 16 23  1  0  0  0  0
 17 24  1  0  0  0  0
M  END
