 xtb: 6.7.1 (edcfbbe)
          04042522053D

 17 17  0     0  0            999 V2000
    2.8377   -0.7649    0.1367 C   0  0  0  0  0  0  0  0  0  0  0  0
    1.9834    0.4705   -0.1171 C   0  0  0  0  0  0  0  0  0  0  0  0
    0.4973    0.2501   -0.0569 C   0  0  0  0  0  0  0  0  0  0  0  0
   -0.3623    1.3316   -0.2436 C   0  0  0  0  0  0  0  0  0  0  0  0
   -1.7305    1.1389   -0.1914 C   0  0  0  0  0  0  0  0  0  0  0  0
   -2.2033   -0.1427    0.0487 C   0  0  0  0  0  0  0  0  0  0  0  0
   -1.4058   -1.1822    0.2284 N   0  0  0  0  0  0  0  0  0  0  0  0
   -0.0962   -0.9855    0.1759 C   0  0  0  0  0  0  0  0  0  0  0  0
    2.6416   -1.1753    1.1243 H   0  0  0  0  0  0  0  0  0  0  0  0
    3.8900   -0.4972    0.0814 H   0  0  0  0  0  0  0  0  0  0  0  0
    2.6419   -1.5323   -0.6082 H   0  0  0  0  0  0  0  0  0  0  0  0
    2.2240    0.8769   -1.1039 H   0  0  0  0  0  0  0  0  0  0  0  0
    2.2398    1.2414    0.6153 H   0  0  0  0  0  0  0  0  0  0  0  0
    0.0456    2.3155   -0.4283 H   0  0  0  0  0  0  0  0  0  0  0  0
   -2.4157    1.9596   -0.3331 H   0  0  0  0  0  0  0  0  0  0  0  0
   -3.2631   -0.3529    0.0993 H   0  0  0  0  0  0  0  0  0  0  0  0
    0.4957   -1.8758    0.3316 H   0  0  0  0  0  0  0  0  0  0  0  0
  1  2  1  0  0  0  0
  2  3  1  0  0  0  0
  3  4  4  0  0  0  0
  4  5  4  0  0  0  0
  5  6  4  0  0  0  0
  6  7  4  0  0  0  0
  3  8  4  0  0  0  0
  7  8  4  0  0  0  0
  1  9  1  0  0  0  0
  1 10  1  0  0  0  0
  1 11  1  0  0  0  0
  2 12  1  0  0  0  0
  2 13  1  0  0  0  0
  4 14  1  0  0  0  0
  5 15  1  0  0  0  0
  6 16  1  0  0  0  0
  8 17  1  0  0  0  0
M  END
