 xtb: 6.7.1 (edcfbbe)
          04052508553D

 20 20  0     0  0            999 V2000
   -2.9865    1.2334    0.0001 C   0  0  0  0  0  0  0  0  0  0  0  0
   -1.7554    0.3776    0.0003 C   0  0  0  0  0  0  0  0  0  0  0  0
   -1.8331   -1.0042   -0.0009 C   0  0  0  0  0  0  0  0  0  0  0  0
   -0.6841   -1.7792   -0.0009 C   0  0  0  0  0  0  0  0  0  0  0  0
    0.5624   -1.1809    0.0001 C   0  0  0  0  0  0  0  0  0  0  0  0
    0.6535    0.2210    0.0009 C   0  0  0  0  0  0  0  0  0  0  0  0
   -0.4997    0.9823    0.0011 C   0  0  0  0  0  0  0  0  0  0  0  0
    1.9396    0.7163    0.0014 O   0  0  0  0  0  0  0  0  0  0  0  0
    2.1182    2.1174   -0.0020 C   0  0  0  0  0  0  0  0  0  0  0  0
    1.6870   -1.9538    0.0002 O   0  0  0  0  0  0  0  0  0  0  0  0
   -3.0056    1.8698   -0.8829 H   0  0  0  0  0  0  0  0  0  0  0  0
   -3.8818    0.6187    0.0055 H   0  0  0  0  0  0  0  0  0  0  0  0
   -3.0005    1.8780    0.8772 H   0  0  0  0  0  0  0  0  0  0  0  0
   -2.7966   -1.4901   -0.0017 H   0  0  0  0  0  0  0  0  0  0  0  0
   -0.7359   -2.8562   -0.0017 H   0  0  0  0  0  0  0  0  0  0  0  0
   -0.4431    2.0593    0.0020 H   0  0  0  0  0  0  0  0  0  0  0  0
    3.1953    2.2689   -0.0040 H   0  0  0  0  0  0  0  0  0  0  0  0
    1.6838    2.5718    0.8921 H   0  0  0  0  0  0  0  0  0  0  0  0
    1.6810    2.5676   -0.8969 H   0  0  0  0  0  0  0  0  0  0  0  0
    2.4639   -1.3719    0.0006 H   0  0  0  0  0  0  0  0  0  0  0  0
  1  2  1  0  0  0  0
  2  3  4  0  0  0  0
  3  4  4  0  0  0  0
  4  5  4  0  0  0  0
  5  6  4  0  0  0  0
  2  7  4  0  0  0  0
  6  7  4  0  0  0  0
  6  8  1  0  0  0  0
  8  9  1  0  0  0  0
  5 10  1  0  0  0  0
  1 11  1  0  0  0  0
  1 12  1  0  0  0  0
  1 13  1  0  0  0  0
  3 14  1  0  0  0  0
  4 15  1  0  0  0  0
  7 16  1  0  0  0  0
  9 17  1  0  0  0  0
  9 18  1  0  0  0  0
  9 19  1  0  0  0  0
 10 20  1  0  0  0  0
M  END
