 xtb: 6.7.1 (edcfbbe)
          04062505073D

 29 29  0     0  0            999 V2000
   -3.6814   -0.2694    0.1271 C   0  0  0  0  0  0  0  0  0  0  0  0
   -2.1999   -0.2933   -0.2373 C   0  0  0  0  0  0  0  0  0  0  0  0
   -2.1021   -0.5615   -1.2954 H   0  0  0  0  0  0  0  0  0  0  0  0
   -1.4342   -1.3153    0.5996 C   0  0  0  0  0  0  0  0  0  0  0  0
    0.0429   -1.3193    0.2245 C   0  0  0  0  0  0  0  0  0  0  0  0
    0.6748    0.0594    0.4738 C   0  0  0  0  0  0  0  0  0  0  0  0
    0.5142    0.3096    1.5294 H   0  0  0  0  0  0  0  0  0  0  0  0
   -0.1010    1.0846   -0.3223 C   0  0  0  0  0  0  0  0  0  0  0  0
    0.4087    1.8425   -1.1250 O   0  0  0  0  0  0  0  0  0  0  0  0
   -1.5794    1.0974   -0.0368 C   0  0  0  0  0  0  0  0  0  0  0  0
    2.1890    0.1320    0.2010 C   0  0  0  0  0  0  0  0  0  0  0  0
    2.9823   -0.5501    1.3137 C   0  0  0  0  0  0  0  0  0  0  0  0
    2.5759   -0.4463   -1.1590 C   0  0  0  0  0  0  0  0  0  0  0  0
   -3.8104   -0.0134    1.1761 H   0  0  0  0  0  0  0  0  0  0  0  0
   -4.2118    0.4643   -0.4745 H   0  0  0  0  0  0  0  0  0  0  0  0
   -4.1281   -1.2447   -0.0475 H   0  0  0  0  0  0  0  0  0  0  0  0
   -1.5477   -1.0769    1.6591 H   0  0  0  0  0  0  0  0  0  0  0  0
   -1.8534   -2.3088    0.4319 H   0  0  0  0  0  0  0  0  0  0  0  0
    0.5742   -2.0671    0.8130 H   0  0  0  0  0  0  0  0  0  0  0  0
    0.1432   -1.5795   -0.8301 H   0  0  0  0  0  0  0  0  0  0  0  0
   -1.7236    1.4023    1.0019 H   0  0  0  0  0  0  0  0  0  0  0  0
   -2.0603    1.8322   -0.6850 H   0  0  0  0  0  0  0  0  0  0  0  0
    2.4499    1.1977    0.1928 H   0  0  0  0  0  0  0  0  0  0  0  0
    2.7700   -1.6158    1.3420 H   0  0  0  0  0  0  0  0  0  0  0  0
    2.7396   -0.1203    2.2827 H   0  0  0  0  0  0  0  0  0  0  0  0
    4.0479   -0.4223    1.1411 H   0  0  0  0  0  0  0  0  0  0  0  0
    3.6235   -0.2373   -1.3623 H   0  0  0  0  0  0  0  0  0  0  0  0
    1.9818    0.0097   -1.9475 H   0  0  0  0  0  0  0  0  0  0  0  0
    2.4345   -1.5236   -1.1813 H   0  0  0  0  0  0  0  0  0  0  0  0
  1  2  1  0  0  0  0
  2  3  1  0  0  0  0
  2  4  1  0  0  0  0
  4  5  1  0  0  0  0
  5  6  1  0  0  0  0
  6  7  1  0  0  0  0
  6  8  1  0  0  0  0
  8  9  2  0  0  0  0
  2 10  1  0  0  0  0
  8 10  1  0  0  0  0
  6 11  1  0  0  0  0
 11 12  1  0  0  0  0
 11 13  1  0  0  0  0
  1 14  1  0  0  0  0
  1 15  1  0  0  0  0
  1 16  1  0  0  0  0
  4 17  1  0  0  0  0
  4 18  1  0  0  0  0
  5 19  1  0  0  0  0
  5 20  1  0  0  0  0
 10 21  1  0  0  0  0
 10 22  1  0  0  0  0
 11 23  1  0  0  0  0
 12 24  1  0  0  0  0
 12 25  1  0  0  0  0
 12 26  1  0  0  0  0
 13 27  1  0  0  0  0
 13 28  1  0  0  0  0
 13 29  1  0  0  0  0
M  END
