 xtb: 6.7.1 (edcfbbe)
          04062518003D

 24 24  0     0  0            999 V2000
   -2.5532   -0.6950   -0.3256 C   0  0  0  0  0  0  0  0  0  0  0  0
   -1.1619   -0.3298    0.2098 C   0  0  0  0  0  0  0  0  0  0  0  0
   -1.1866   -0.2718    1.3109 H   0  0  0  0  0  0  0  0  0  0  0  0
   -0.6910    1.0279   -0.3558 C   0  0  0  0  0  0  0  0  0  0  0  0
   -0.6780    0.9505   -1.4499 H   0  0  0  0  0  0  0  0  0  0  0  0
    0.7315    1.3254    0.1536 C   0  0  0  0  0  0  0  0  0  0  0  0
    0.7191    1.4292    1.2461 H   0  0  0  0  0  0  0  0  0  0  0  0
    1.6593    0.1525   -0.1969 C   0  0  0  0  0  0  0  0  0  0  0  0
    1.7575    0.0737   -1.2909 H   0  0  0  0  0  0  0  0  0  0  0  0
    1.0429   -1.1671    0.3073 C   0  0  0  0  0  0  0  0  0  0  0  0
    1.0259   -1.1420    1.4191 H   0  0  0  0  0  0  0  0  0  0  0  0
   -0.2629   -1.3518   -0.1770 O   0  0  0  0  0  0  0  0  0  0  0  0
    1.8298   -2.2051   -0.1534 O   0  0  0  0  0  0  0  0  0  0  0  0
    2.9081    0.3743    0.4015 O   0  0  0  0  0  0  0  0  0  0  0  0
    1.2088    2.5579   -0.3092 O   0  0  0  0  0  0  0  0  0  0  0  0
   -1.5898    2.0615   -0.0580 O   0  0  0  0  0  0  0  0  0  0  0  0
   -3.1977   -1.6940    0.4195 O   0  0  0  0  0  0  0  0  0  0  0  0
   -2.4345   -1.1010   -1.3316 H   0  0  0  0  0  0  0  0  0  0  0  0
   -3.1530    0.2210   -0.3714 H   0  0  0  0  0  0  0  0  0  0  0  0
    1.3451   -3.0412   -0.0704 H   0  0  0  0  0  0  0  0  0  0  0  0
    3.4879   -0.3771    0.2055 H   0  0  0  0  0  0  0  0  0  0  0  0
    1.3191    2.5361   -1.2707 H   0  0  0  0  0  0  0  0  0  0  0  0
   -1.4101    2.4175    0.8244 H   0  0  0  0  0  0  0  0  0  0  0  0
   -3.4348   -1.3502    1.2926 H   0  0  0  0  0  0  0  0  0  0  0  0
  1  2  1  0  0  0  0
  2  3  1  0  0  0  0
  2  4  1  0  0  0  0
  4  5  1  0  0  0  0
  4  6  1  0  0  0  0
  6  7  1  0  0  0  0
  6  8  1  0  0  0  0
  8  9  1  0  0  0  0
  8 10  1  0  0  0  0
 10 11  1  0  0  0  0
  2 12  1  0  0  0  0
 10 12  1  0  0  0  0
 10 13  1  0  0  0  0
  8 14  1  0  0  0  0
  6 15  1  0  0  0  0
  4 16  1  0  0  0  0
  1 17  1  0  0  0  0
  1 18  1  0  0  0  0
  1 19  1  0  0  0  0
 13 20  1  0  0  0  0
 14 21  1  0  0  0  0
 15 22  1  0  0  0  0
 16 23  1  0  0  0  0
 17 24  1  0  0  0  0
M  END
