 xtb: 6.7.1 (edcfbbe)
          04032521083D

 18 18  0     0  0            999 V2000
   -1.7862   -0.0383   -0.6630 C   0  0  0  0  0  0  0  0  0  0  0  0
   -0.8517   -0.0329    0.5430 C   0  0  0  0  0  0  0  0  0  0  0  0
    0.1417   -1.1972    0.5022 C   0  0  0  0  0  0  0  0  0  0  0  0
    1.2636   -0.7282   -0.4331 C   0  0  0  0  0  0  0  0  0  0  0  0
    1.2209    0.8115   -0.4068 C   0  0  0  0  0  0  0  0  0  0  0  0
    0.0755    1.1854    0.5427 C   0  0  0  0  0  0  0  0  0  0  0  0
   -1.2197   -0.0068   -1.5892 H   0  0  0  0  0  0  0  0  0  0  0  0
   -2.3984   -0.9375   -0.6637 H   0  0  0  0  0  0  0  0  0  0  0  0
   -2.4474    0.8251   -0.6336 H   0  0  0  0  0  0  0  0  0  0  0  0
   -1.4575   -0.0652    1.4533 H   0  0  0  0  0  0  0  0  0  0  0  0
    0.5389   -1.3677    1.5040 H   0  0  0  0  0  0  0  0  0  0  0  0
   -0.3197   -2.1218    0.1584 H   0  0  0  0  0  0  0  0  0  0  0  0
    2.2304   -1.1091   -0.1065 H   0  0  0  0  0  0  0  0  0  0  0  0
    1.0921   -1.0965   -1.4444 H   0  0  0  0  0  0  0  0  0  0  0  0
    2.1654    1.2338   -0.0661 H   0  0  0  0  0  0  0  0  0  0  0  0
    1.0285    1.2041   -1.4051 H   0  0  0  0  0  0  0  0  0  0  0  0
    0.4634    1.3437    1.5502 H   0  0  0  0  0  0  0  0  0  0  0  0
   -0.4369    2.0941    0.2301 H   0  0  0  0  0  0  0  0  0  0  0  0
  1  2  1  0  0  0  0
  2  3  1  0  0  0  0
  3  4  1  0  0  0  0
  4  5  1  0  0  0  0
  2  6  1  0  0  0  0
  5  6  1  0  0  0  0
  1  7  1  0  0  0  0
  1  8  1  0  0  0  0
  1  9  1  0  0  0  0
  2 10  1  0  0  0  0
  3 11  1  0  0  0  0
  3 12  1  0  0  0  0
  4 13  1  0  0  0  0
  4 14  1  0  0  0  0
  5 15  1  0  0  0  0
  5 16  1  0  0  0  0
  6 17  1  0  0  0  0
  6 18  1  0  0  0  0
M  END
