 xtb: 6.7.1 (edcfbbe)
          04042516023D

 14 13  0     0  0            999 V2000
   -1.8923   -1.2364   -0.0239 C   0  0  0  0  0  0  0  0  0  0  0  0
   -1.5170    0.2382    0.0212 C   0  0  0  0  0  0  0  0  0  0  0  0
   -0.0340    0.5022    0.0104 C   0  0  0  0  0  0  0  0  0  0  0  0
    0.4532    1.6169    0.0103 O   0  0  0  0  0  0  0  0  0  0  0  0
    0.6954   -0.6038   -0.0023 O   0  0  0  0  0  0  0  0  0  0  0  0
    2.1172   -0.4651   -0.0133 C   0  0  0  0  0  0  0  0  0  0  0  0
   -2.9736   -1.3378   -0.0141 H   0  0  0  0  0  0  0  0  0  0  0  0
   -1.5049   -1.7023   -0.9254 H   0  0  0  0  0  0  0  0  0  0  0  0
   -1.4831   -1.7619    0.8341 H   0  0  0  0  0  0  0  0  0  0  0  0
   -1.9151    0.7130    0.9211 H   0  0  0  0  0  0  0  0  0  0  0  0
   -1.9406    0.7752   -0.8304 H   0  0  0  0  0  0  0  0  0  0  0  0
    2.4151    0.2815   -0.7506 H   0  0  0  0  0  0  0  0  0  0  0  0
    2.5068   -1.4463   -0.2665 H   0  0  0  0  0  0  0  0  0  0  0  0
    2.4653   -0.1509    0.9712 H   0  0  0  0  0  0  0  0  0  0  0  0
  1  2  1  0  0  0  0
  2  3  1  0  0  0  0
  3  4  2  0  0  0  0
  3  5  1  0  0  0  0
  5  6  1  0  0  0  0
  1  7  1  0  0  0  0
  1  8  1  0  0  0  0
  1  9  1  0  0  0  0
  2 10  1  0  0  0  0
  2 11  1  0  0  0  0
  6 12  1  0  0  0  0
  6 13  1  0  0  0  0
  6 14  1  0  0  0  0
M  END
