 xtb: 6.7.1 (edcfbbe)
          04062511443D

 31 31  0     0  0            999 V2000
    3.7187    0.3104    0.2131 C   0  0  0  0  0  0  0  0  0  0  0  0
    2.2949    0.1687   -0.3172 C   0  0  0  0  0  0  0  0  0  0  0  0
    2.3412   -0.0907   -1.3813 H   0  0  0  0  0  0  0  0  0  0  0  0
    1.5166    1.4742   -0.1682 C   0  0  0  0  0  0  0  0  0  0  0  0
    0.0799    1.3259   -0.6624 C   0  0  0  0  0  0  0  0  0  0  0  0
   -0.6644    0.2325    0.1106 C   0  0  0  0  0  0  0  0  0  0  0  0
   -0.6252    0.4834    1.1760 H   0  0  0  0  0  0  0  0  0  0  0  0
    0.1142   -1.0847   -0.0925 C   0  0  0  0  0  0  0  0  0  0  0  0
    0.1472   -1.3004   -1.1728 H   0  0  0  0  0  0  0  0  0  0  0  0
    1.5486   -0.9411    0.4174 C   0  0  0  0  0  0  0  0  0  0  0  0
   -0.4522   -2.1960    0.5848 O   0  0  0  0  0  0  0  0  0  0  0  0
   -2.1515    0.0690   -0.2876 C   0  0  0  0  0  0  0  0  0  0  0  0
   -2.9679   -0.4010    0.9205 C   0  0  0  0  0  0  0  0  0  0  0  0
   -2.7990    1.3408   -0.8377 C   0  0  0  0  0  0  0  0  0  0  0  0
    4.2478    1.0946   -0.3228 H   0  0  0  0  0  0  0  0  0  0  0  0
    3.7048    0.5647    1.2705 H   0  0  0  0  0  0  0  0  0  0  0  0
    4.2657   -0.6213    0.0915 H   0  0  0  0  0  0  0  0  0  0  0  0
    1.5081    1.7662    0.8843 H   0  0  0  0  0  0  0  0  0  0  0  0
    2.0145    2.2663   -0.7311 H   0  0  0  0  0  0  0  0  0  0  0  0
   -0.4291    2.2806   -0.5379 H   0  0  0  0  0  0  0  0  0  0  0  0
    0.0864    1.0779   -1.7266 H   0  0  0  0  0  0  0  0  0  0  0  0
    1.5136   -0.7288    1.4877 H   0  0  0  0  0  0  0  0  0  0  0  0
    2.0571   -1.8985    0.2878 H   0  0  0  0  0  0  0  0  0  0  0  0
   -1.2267   -2.5057    0.0989 H   0  0  0  0  0  0  0  0  0  0  0  0
   -2.2106   -0.6909   -1.0770 H   0  0  0  0  0  0  0  0  0  0  0  0
   -3.9645   -0.7101    0.6127 H   0  0  0  0  0  0  0  0  0  0  0  0
   -3.0703    0.4155    1.6329 H   0  0  0  0  0  0  0  0  0  0  0  0
   -2.4853   -1.2307    1.4289 H   0  0  0  0  0  0  0  0  0  0  0  0
   -3.8528    1.1498   -1.0291 H   0  0  0  0  0  0  0  0  0  0  0  0
   -2.3393    1.6550   -1.7700 H   0  0  0  0  0  0  0  0  0  0  0  0
   -2.7292    2.1519   -0.1169 H   0  0  0  0  0  0  0  0  0  0  0  0
  1  2  1  0  0  0  0
  2  3  1  0  0  0  0
  2  4  1  0  0  0  0
  4  5  1  0  0  0  0
  5  6  1  0  0  0  0
  6  7  1  0  0  0  0
  6  8  1  0  0  0  0
  8  9  1  0  0  0  0
  2 10  1  0  0  0  0
  8 10  1  0  0  0  0
  8 11  1  0  0  0  0
  6 12  1  0  0  0  0
 12 13  1  0  0  0  0
 12 14  1  0  0  0  0
  1 15  1  0  0  0  0
  1 16  1  0  0  0  0
  1 17  1  0  0  0  0
  4 18  1  0  0  0  0
  4 19  1  0  0  0  0
  5 20  1  0  0  0  0
  5 21  1  0  0  0  0
 10 22  1  0  0  0  0
 10 23  1  0  0  0  0
 11 24  1  0  0  0  0
 12 25  1  0  0  0  0
 13 26  1  0  0  0  0
 13 27  1  0  0  0  0
 13 28  1  0  0  0  0
 14 29  1  0  0  0  0
 14 30  1  0  0  0  0
 14 31  1  0  0  0  0
M  END
