 xtb: 6.7.1 (edcfbbe)
          04052512103D

 26 25  0     0  0            999 V2000
   -1.7729    1.1311    0.9499 C   0  0  0  0  0  0  0  0  0  0  0  0
   -1.4810    0.1376   -0.1727 C   0  0  0  0  0  0  0  0  0  0  0  0
   -2.6806   -0.8014   -0.3287 C   0  0  0  0  0  0  0  0  0  0  0  0
   -0.2260   -0.7146    0.0708 C   0  0  0  0  0  0  0  0  0  0  0  0
    1.1720   -0.0801   -0.0947 C   0  0  0  0  0  0  0  0  0  0  0  0
    1.2699    0.7325   -1.3876 C   0  0  0  0  0  0  0  0  0  0  0  0
    1.5587    0.8029    1.0948 C   0  0  0  0  0  0  0  0  0  0  0  0
    2.1803   -1.2364   -0.1668 C   0  0  0  0  0  0  0  0  0  0  0  0
   -1.7525    0.6312    1.9157 H   0  0  0  0  0  0  0  0  0  0  0  0
   -1.0522    1.9424    0.9654 H   0  0  0  0  0  0  0  0  0  0  0  0
   -2.7601    1.5678    0.8123 H   0  0  0  0  0  0  0  0  0  0  0  0
   -1.3664    0.6895   -1.1099 H   0  0  0  0  0  0  0  0  0  0  0  0
   -3.5882   -0.2333   -0.5198 H   0  0  0  0  0  0  0  0  0  0  0  0
   -2.5298   -1.4899   -1.1572 H   0  0  0  0  0  0  0  0  0  0  0  0
   -2.8256   -1.3833    0.5791 H   0  0  0  0  0  0  0  0  0  0  0  0
   -0.2911   -1.1426    1.0746 H   0  0  0  0  0  0  0  0  0  0  0  0
   -0.2745   -1.5485   -0.6349 H   0  0  0  0  0  0  0  0  0  0  0  0
    2.3010    1.0334   -1.5602 H   0  0  0  0  0  0  0  0  0  0  0  0
    0.6629    1.6324   -1.3323 H   0  0  0  0  0  0  0  0  0  0  0  0
    0.9393    0.1404   -2.2380 H   0  0  0  0  0  0  0  0  0  0  0  0
    1.4160    0.2697    2.0317 H   0  0  0  0  0  0  0  0  0  0  0  0
    0.9713    1.7145    1.1240 H   0  0  0  0  0  0  0  0  0  0  0  0
    2.6069    1.0859    1.0201 H   0  0  0  0  0  0  0  0  0  0  0  0
    3.1958   -0.8539   -0.2419 H   0  0  0  0  0  0  0  0  0  0  0  0
    1.9884   -1.8628   -1.0352 H   0  0  0  0  0  0  0  0  0  0  0  0
    2.1140   -1.8563    0.7245 H   0  0  0  0  0  0  0  0  0  0  0  0
  1  2  1  0  0  0  0
  2  3  1  0  0  0  0
  2  4  1  0  0  0  0
  4  5  1  0  0  0  0
  5  6  1  0  0  0  0
  5  7  1  0  0  0  0
  5  8  1  0  0  0  0
  1  9  1  0  0  0  0
  1 10  1  0  0  0  0
  1 11  1  0  0  0  0
  2 12  1  0  0  0  0
  3 13  1  0  0  0  0
  3 14  1  0  0  0  0
  3 15  1  0  0  0  0
  4 16  1  0  0  0  0
  4 17  1  0  0  0  0
  6 18  1  0  0  0  0
  6 19  1  0  0  0  0
  6 20  1  0  0  0  0
  7 21  1  0  0  0  0
  7 22  1  0  0  0  0
  7 23  1  0  0  0  0
  8 24  1  0  0  0  0
  8 25  1  0  0  0  0
  8 26  1  0  0  0  0
M  END
