 xtb: 6.7.1 (edcfbbe)
          04062518003D

 24 24  0     0  0            999 V2000
   -1.6781   -1.3219   -0.5879 C   0  0  0  0  0  0  0  0  0  0  0  0
   -1.1452   -0.4945    0.5999 C   0  0  0  0  0  0  0  0  0  0  0  0
   -1.8997   -0.4974    1.3954 H   0  0  0  0  0  0  0  0  0  0  0  0
   -0.8774    0.9817    0.2129 C   0  0  0  0  0  0  0  0  0  0  0  0
   -1.2690    1.1689   -0.7928 H   0  0  0  0  0  0  0  0  0  0  0  0
    0.6296    1.2686    0.2053 C   0  0  0  0  0  0  0  0  0  0  0  0
    0.9846    1.3810    1.2444 H   0  0  0  0  0  0  0  0  0  0  0  0
    1.3813    0.0863   -0.4184 C   0  0  0  0  0  0  0  0  0  0  0  0
    0.9822   -0.1013   -1.4240 H   0  0  0  0  0  0  0  0  0  0  0  0
    1.1647   -1.1657    0.4502 C   0  0  0  0  0  0  0  0  0  0  0  0
    1.9661   -1.2091    1.2051 H   0  0  0  0  0  0  0  0  0  0  0  0
   -0.0170   -1.1097    1.2108 O   0  0  0  0  0  0  0  0  0  0  0  0
    1.2092   -2.2800   -0.3866 O   0  0  0  0  0  0  0  0  0  0  0  0
    2.7407    0.4380   -0.4829 O   0  0  0  0  0  0  0  0  0  0  0  0
    0.8606    2.4514   -0.5112 O   0  0  0  0  0  0  0  0  0  0  0  0
   -1.5822    1.8684    1.0432 O   0  0  0  0  0  0  0  0  0  0  0  0
   -2.7829   -0.7231   -1.2113 O   0  0  0  0  0  0  0  0  0  0  0  0
   -1.9225   -2.3293   -0.2283 H   0  0  0  0  0  0  0  0  0  0  0  0
   -0.9110   -1.4100   -1.3594 H   0  0  0  0  0  0  0  0  0  0  0  0
    1.1766   -3.0960    0.1356 H   0  0  0  0  0  0  0  0  0  0  0  0
    3.2263   -0.2179   -1.0026 H   0  0  0  0  0  0  0  0  0  0  0  0
    1.8173    2.5373   -0.6495 H   0  0  0  0  0  0  0  0  0  0  0  0
   -1.1736    1.8953    1.9210 H   0  0  0  0  0  0  0  0  0  0  0  0
   -3.5207   -0.6667   -0.5875 H   0  0  0  0  0  0  0  0  0  0  0  0
  1  2  1  0  0  0  0
  2  3  1  0  0  0  0
  2  4  1  0  0  0  0
  4  5  1  0  0  0  0
  4  6  1  0  0  0  0
  6  7  1  0  0  0  0
  6  8  1  0  0  0  0
  8  9  1  0  0  0  0
  8 10  1  0  0  0  0
 10 11  1  0  0  0  0
  2 12  1  0  0  0  0
 10 12  1  0  0  0  0
 10 13  1  0  0  0  0
  8 14  1  0  0  0  0
  6 15  1  0  0  0  0
  4 16  1  0  0  0  0
  1 17  1  0  0  0  0
  1 18  1  0  0  0  0
  1 19  1  0  0  0  0
 13 20  1  0  0  0  0
 14 21  1  0  0  0  0
 15 22  1  0  0  0  0
 16 23  1  0  0  0  0
 17 24  1  0  0  0  0
M  END
