 xtb: 6.7.1 (edcfbbe)
          04062518003D

 24 24  0     0  0            999 V2000
   -1.5590   -1.0288   -0.8465 C   0  0  0  0  0  0  0  0  0  0  0  0
   -1.2198   -0.5532    0.5831 C   0  0  0  0  0  0  0  0  0  0  0  0
   -2.0392   -0.7861    1.2718 H   0  0  0  0  0  0  0  0  0  0  0  0
   -0.9174    0.9486    0.6890 C   0  0  0  0  0  0  0  0  0  0  0  0
   -1.7564    1.5479    0.3240 H   0  0  0  0  0  0  0  0  0  0  0  0
    0.3240    1.3219   -0.1481 C   0  0  0  0  0  0  0  0  0  0  0  0
    0.8348    2.1356    0.3824 H   0  0  0  0  0  0  0  0  0  0  0  0
    1.3550    0.1735   -0.3332 C   0  0  0  0  0  0  0  0  0  0  0  0
    1.3333   -0.1175   -1.3938 H   0  0  0  0  0  0  0  0  0  0  0  0
    1.1216   -1.1202    0.4759 C   0  0  0  0  0  0  0  0  0  0  0  0
    1.8825   -1.1473    1.2711 H   0  0  0  0  0  0  0  0  0  0  0  0
   -0.1095   -1.2444    1.1452 O   0  0  0  0  0  0  0  0  0  0  0  0
    1.3059   -2.1849   -0.4107 O   0  0  0  0  0  0  0  0  0  0  0  0
    2.6538    0.5987    0.0140 O   0  0  0  0  0  0  0  0  0  0  0  0
   -0.0413    1.8551   -1.3994 O   0  0  0  0  0  0  0  0  0  0  0  0
   -0.7664    1.3042    2.0418 O   0  0  0  0  0  0  0  0  0  0  0  0
   -2.2222   -0.0512   -1.6127 O   0  0  0  0  0  0  0  0  0  0  0  0
   -2.1457   -1.9507   -0.7875 H   0  0  0  0  0  0  0  0  0  0  0  0
   -0.6346   -1.2567   -1.3802 H   0  0  0  0  0  0  0  0  0  0  0  0
    1.3152   -3.0248    0.0734 H   0  0  0  0  0  0  0  0  0  0  0  0
    2.9389    1.2923   -0.5987 H   0  0  0  0  0  0  0  0  0  0  0  0
   -0.7400    1.3037   -1.7950 H   0  0  0  0  0  0  0  0  0  0  0  0
   -0.1933    0.6534    2.4750 H   0  0  0  0  0  0  0  0  0  0  0  0
   -3.1450    0.0215   -1.3317 H   0  0  0  0  0  0  0  0  0  0  0  0
  1  2  1  0  0  0  0
  2  3  1  0  0  0  0
  2  4  1  0  0  0  0
  4  5  1  0  0  0  0
  4  6  1  0  0  0  0
  6  7  1  0  0  0  0
  6  8  1  0  0  0  0
  8  9  1  0  0  0  0
  8 10  1  0  0  0  0
 10 11  1  0  0  0  0
  2 12  1  0  0  0  0
 10 12  1  0  0  0  0
 10 13  1  0  0  0  0
  8 14  1  0  0  0  0
  6 15  1  0  0  0  0
  4 16  1  0  0  0  0
  1 17  1  0  0  0  0
  1 18  1  0  0  0  0
  1 19  1  0  0  0  0
 13 20  1  0  0  0  0
 14 21  1  0  0  0  0
 15 22  1  0  0  0  0
 16 23  1  0  0  0  0
 17 24  1  0  0  0  0
M  END
