 xtb: 6.7.1 (edcfbbe)
          04042516023D

 14 13  0     0  0            999 V2000
   -2.3355   -0.1746   -0.5448 C   0  0  0  0  0  0  0  0  0  0  0  0
   -1.2756   -0.6005    0.4723 C   0  0  0  0  0  0  0  0  0  0  0  0
    0.0097    0.1469    0.2293 C   0  0  0  0  0  0  0  0  0  0  0  0
    0.1338    1.3530    0.2700 O   0  0  0  0  0  0  0  0  0  0  0  0
    1.0141   -0.6762   -0.0510 O   0  0  0  0  0  0  0  0  0  0  0  0
    2.2951   -0.0961   -0.3124 C   0  0  0  0  0  0  0  0  0  0  0  0
   -2.4641    0.9047   -0.5149 H   0  0  0  0  0  0  0  0  0  0  0  0
   -2.0352   -0.4602   -1.5498 H   0  0  0  0  0  0  0  0  0  0  0  0
   -3.2832   -0.6509   -0.3138 H   0  0  0  0  0  0  0  0  0  0  0  0
   -1.0761   -1.6689    0.4080 H   0  0  0  0  0  0  0  0  0  0  0  0
   -1.6194   -0.3517    1.4774 H   0  0  0  0  0  0  0  0  0  0  0  0
    2.6057    0.5177    0.5338 H   0  0  0  0  0  0  0  0  0  0  0  0
    2.2451    0.5291   -1.2045 H   0  0  0  0  0  0  0  0  0  0  0  0
    2.9711   -0.9324   -0.4592 H   0  0  0  0  0  0  0  0  0  0  0  0
  1  2  1  0  0  0  0
  2  3  1  0  0  0  0
  3  4  2  0  0  0  0
  3  5  1  0  0  0  0
  5  6  1  0  0  0  0
  1  7  1  0  0  0  0
  1  8  1  0  0  0  0
  1  9  1  0  0  0  0
  2 10  1  0  0  0  0
  2 11  1  0  0  0  0
  6 12  1  0  0  0  0
  6 13  1  0  0  0  0
  6 14  1  0  0  0  0
M  END
