 xtb: 6.7.1 (edcfbbe)
          04062505073D

 29 29  0     0  0            999 V2000
   -3.2618   -0.4502   -0.8527 C   0  0  0  0  0  0  0  0  0  0  0  0
   -1.7673   -0.2854   -0.5854 C   0  0  0  0  0  0  0  0  0  0  0  0
   -1.2618   -0.2013   -1.5529 H   0  0  0  0  0  0  0  0  0  0  0  0
   -1.2050   -1.4960    0.1791 C   0  0  0  0  0  0  0  0  0  0  0  0
   -0.1505   -1.1025    1.2165 C   0  0  0  0  0  0  0  0  0  0  0  0
    0.7773    0.0115    0.7289 C   0  0  0  0  0  0  0  0  0  0  0  0
    1.4893    0.2650    1.5231 H   0  0  0  0  0  0  0  0  0  0  0  0
   -0.0457    1.2478    0.4477 C   0  0  0  0  0  0  0  0  0  0  0  0
    0.4305    2.3694    0.4486 O   0  0  0  0  0  0  0  0  0  0  0  0
   -1.5065    1.0117    0.1834 C   0  0  0  0  0  0  0  0  0  0  0  0
    1.6214   -0.3534   -0.5217 C   0  0  0  0  0  0  0  0  0  0  0  0
    2.6735    0.7229   -0.7841 C   0  0  0  0  0  0  0  0  0  0  0  0
    2.3178   -1.7031   -0.3505 C   0  0  0  0  0  0  0  0  0  0  0  0
   -3.6409    0.3838   -1.4385 H   0  0  0  0  0  0  0  0  0  0  0  0
   -3.4452   -1.3686   -1.4046 H   0  0  0  0  0  0  0  0  0  0  0  0
   -3.8141   -0.4923    0.0833 H   0  0  0  0  0  0  0  0  0  0  0  0
   -2.0178   -2.0094    0.6954 H   0  0  0  0  0  0  0  0  0  0  0  0
   -0.7798   -2.2021   -0.5346 H   0  0  0  0  0  0  0  0  0  0  0  0
   -0.6471   -0.7456    2.1213 H   0  0  0  0  0  0  0  0  0  0  0  0
    0.4330   -1.9773    1.4994 H   0  0  0  0  0  0  0  0  0  0  0  0
   -2.0050    0.9659    1.1558 H   0  0  0  0  0  0  0  0  0  0  0  0
   -1.9110    1.8748   -0.3488 H   0  0  0  0  0  0  0  0  0  0  0  0
    0.9592   -0.4085   -1.3906 H   0  0  0  0  0  0  0  0  0  0  0  0
    3.1840    0.5294   -1.7244 H   0  0  0  0  0  0  0  0  0  0  0  0
    3.4123    0.7304    0.0147 H   0  0  0  0  0  0  0  0  0  0  0  0
    2.2233    1.7113   -0.8362 H   0  0  0  0  0  0  0  0  0  0  0  0
    2.8945   -1.7184    0.5713 H   0  0  0  0  0  0  0  0  0  0  0  0
    2.9996   -1.8636   -1.1822 H   0  0  0  0  0  0  0  0  0  0  0  0
    1.6082   -2.5242   -0.3362 H   0  0  0  0  0  0  0  0  0  0  0  0
  1  2  1  0  0  0  0
  2  3  1  0  0  0  0
  2  4  1  0  0  0  0
  4  5  1  0  0  0  0
  5  6  1  0  0  0  0
  6  7  1  0  0  0  0
  6  8  1  0  0  0  0
  8  9  2  0  0  0  0
  2 10  1  0  0  0  0
  8 10  1  0  0  0  0
  6 11  1  0  0  0  0
 11 12  1  0  0  0  0
 11 13  1  0  0  0  0
  1 14  1  0  0  0  0
  1 15  1  0  0  0  0
  1 16  1  0  0  0  0
  4 17  1  0  0  0  0
  4 18  1  0  0  0  0
  5 19  1  0  0  0  0
  5 20  1  0  0  0  0
 10 21  1  0  0  0  0
 10 22  1  0  0  0  0
 11 23  1  0  0  0  0
 12 24  1  0  0  0  0
 12 25  1  0  0  0  0
 12 26  1  0  0  0  0
 13 27  1  0  0  0  0
 13 28  1  0  0  0  0
 13 29  1  0  0  0  0
M  END
