 xtb: 6.7.1 (edcfbbe)
          04062518003D

 24 24  0     0  0            999 V2000
   -2.5581   -0.8801    0.3245 C   0  0  0  0  0  0  0  0  0  0  0  0
   -1.1175   -0.4430    0.6323 C   0  0  0  0  0  0  0  0  0  0  0  0
   -0.9800   -0.3939    1.7234 H   0  0  0  0  0  0  0  0  0  0  0  0
   -0.8217    0.9431    0.0203 C   0  0  0  0  0  0  0  0  0  0  0  0
   -1.0700    0.9011   -1.0473 H   0  0  0  0  0  0  0  0  0  0  0  0
    0.6673    1.2958    0.1981 C   0  0  0  0  0  0  0  0  0  0  0  0
    0.8917    1.4151    1.2657 H   0  0  0  0  0  0  0  0  0  0  0  0
    1.5390    0.1505   -0.3389 C   0  0  0  0  0  0  0  0  0  0  0  0
    1.3894    0.0601   -1.4280 H   0  0  0  0  0  0  0  0  0  0  0  0
    1.1052   -1.1717    0.3312 C   0  0  0  0  0  0  0  0  0  0  0  0
    1.2984   -1.0948    1.4149 H   0  0  0  0  0  0  0  0  0  0  0  0
   -0.2545   -1.4285    0.0890 O   0  0  0  0  0  0  0  0  0  0  0  0
    1.8523   -2.2419   -0.1225 O   0  0  0  0  0  0  0  0  0  0  0  0
    2.8858    0.4243   -0.0524 O   0  0  0  0  0  0  0  0  0  0  0  0
    0.9839    2.5389   -0.3655 O   0  0  0  0  0  0  0  0  0  0  0  0
   -1.6613    1.9301    0.5561 O   0  0  0  0  0  0  0  0  0  0  0  0
   -2.7728   -1.0819   -1.0466 O   0  0  0  0  0  0  0  0  0  0  0  0
   -3.2350   -0.0801    0.6288 H   0  0  0  0  0  0  0  0  0  0  0  0
   -2.7827   -1.7906    0.8918 H   0  0  0  0  0  0  0  0  0  0  0  0
    1.5189   -2.5309   -0.9867 H   0  0  0  0  0  0  0  0  0  0  0  0
    3.4071   -0.3826   -0.1900 H   0  0  0  0  0  0  0  0  0  0  0  0
    0.8322    2.5220   -1.3214 H   0  0  0  0  0  0  0  0  0  0  0  0
   -1.3462    2.1975    1.4314 H   0  0  0  0  0  0  0  0  0  0  0  0
   -2.1985   -1.8032   -1.3413 H   0  0  0  0  0  0  0  0  0  0  0  0
  1  2  1  0  0  0  0
  2  3  1  0  0  0  0
  2  4  1  0  0  0  0
  4  5  1  0  0  0  0
  4  6  1  0  0  0  0
  6  7  1  0  0  0  0
  6  8  1  0  0  0  0
  8  9  1  0  0  0  0
  8 10  1  0  0  0  0
 10 11  1  0  0  0  0
  2 12  1  0  0  0  0
 10 12  1  0  0  0  0
 10 13  1  0  0  0  0
  8 14  1  0  0  0  0
  6 15  1  0  0  0  0
  4 16  1  0  0  0  0
  1 17  1  0  0  0  0
  1 18  1  0  0  0  0
  1 19  1  0  0  0  0
 13 20  1  0  0  0  0
 14 21  1  0  0  0  0
 15 22  1  0  0  0  0
 16 23  1  0  0  0  0
 17 24  1  0  0  0  0
M  END
