 xtb: 6.7.1 (edcfbbe)
          04042519573D

 16 16  0     0  0            999 V2000
   -2.5794   -0.2643    0.0000 C   0  0  0  0  0  0  0  0  0  0  0  0
   -1.8720   -1.4763   -0.0000 C   0  0  0  0  0  0  0  0  0  0  0  0
   -0.5070   -1.4534   -0.0000 C   0  0  0  0  0  0  0  0  0  0  0  0
    0.2024   -0.2345   -0.0000 C   0  0  0  0  0  0  0  0  0  0  0  0
   -0.5034    1.0027   -0.0000 C   0  0  0  0  0  0  0  0  0  0  0  0
   -1.9171    0.9308    0.0000 C   0  0  0  0  0  0  0  0  0  0  0  0
    0.0922    2.1955    0.0000 N   0  0  0  0  0  0  0  0  0  0  0  0
    1.5899   -0.3016   -0.0000 N   0  0  0  0  0  0  0  0  0  0  0  0
    2.1432   -1.4064    0.0000 O   0  0  0  0  0  0  0  0  0  0  0  0
    2.2645    0.7395   -0.0000 O   0  0  0  0  0  0  0  0  0  0  0  0
   -3.6578   -0.2803    0.0000 H   0  0  0  0  0  0  0  0  0  0  0  0
   -2.4016   -2.4141   -0.0000 H   0  0  0  0  0  0  0  0  0  0  0  0
    0.0727   -2.3633   -0.0000 H   0  0  0  0  0  0  0  0  0  0  0  0
   -2.4672    1.8583    0.0000 H   0  0  0  0  0  0  0  0  0  0  0  0
    1.1009    2.2511   -0.0000 H   0  0  0  0  0  0  0  0  0  0  0  0
   -0.4705    3.0293    0.0000 H   0  0  0  0  0  0  0  0  0  0  0  0
  1  2  4  0  0  0  0
  2  3  2  0  0  0  0
  3  4  4  0  0  0  0
  4  5  4  0  0  0  0
  1  6  2  0  0  0  0
  5  6  4  0  0  0  0
  5  7  4  0  0  0  0
  4  8  1  0  0  0  0
  8  9  4  0  0  0  0
  8 10  4  0  0  0  0
  1 11  1  0  0  0  0
  2 12  1  0  0  0  0
  3 13  1  0  0  0  0
  6 14  1  0  0  0  0
  7 15  1  0  0  0  0
  7 16  1  0  0  0  0
M  END
