 xtb: 6.7.1 (edcfbbe)
          04062518003D

 24 24  0     0  0            999 V2000
   -1.7625   -1.0490   -0.6468 C   0  0  0  0  0  0  0  0  0  0  0  0
   -1.0842   -0.5033    0.6315 C   0  0  0  0  0  0  0  0  0  0  0  0
   -1.7595   -0.6323    1.4845 H   0  0  0  0  0  0  0  0  0  0  0  0
   -0.7374    0.9912    0.5498 C   0  0  0  0  0  0  0  0  0  0  0  0
   -1.6254    1.5361    0.2159 H   0  0  0  0  0  0  0  0  0  0  0  0
    0.4114    1.2335   -0.4454 C   0  0  0  0  0  0  0  0  0  0  0  0
    0.7271    2.2834   -0.3237 H   0  0  0  0  0  0  0  0  0  0  0  0
    1.6140    0.3371   -0.0790 C   0  0  0  0  0  0  0  0  0  0  0  0
    2.3102    0.2949   -0.9291 H   0  0  0  0  0  0  0  0  0  0  0  0
    1.2177   -1.1237    0.2081 C   0  0  0  0  0  0  0  0  0  0  0  0
    2.0096   -1.5456    0.8485 H   0  0  0  0  0  0  0  0  0  0  0  0
    0.0613   -1.2766    0.9875 O   0  0  0  0  0  0  0  0  0  0  0  0
    1.1562   -1.8008   -1.0103 O   0  0  0  0  0  0  0  0  0  0  0  0
    2.2588    0.8088    1.0808 O   0  0  0  0  0  0  0  0  0  0  0  0
   -0.0725    1.0183   -1.7444 O   0  0  0  0  0  0  0  0  0  0  0  0
   -0.4259    1.5165    1.8155 O   0  0  0  0  0  0  0  0  0  0  0  0
   -2.7715   -0.2036   -1.1429 O   0  0  0  0  0  0  0  0  0  0  0  0
   -2.2446   -1.9981   -0.3986 H   0  0  0  0  0  0  0  0  0  0  0  0
   -1.0005   -1.2230   -1.4095 H   0  0  0  0  0  0  0  0  0  0  0  0
    1.0493   -2.7510   -0.8539 H   0  0  0  0  0  0  0  0  0  0  0  0
    2.6970    1.6531    0.8984 H   0  0  0  0  0  0  0  0  0  0  0  0
    0.6183    1.2093   -2.3947 H   0  0  0  0  0  0  0  0  0  0  0  0
    0.3567    1.0558    2.1617 H   0  0  0  0  0  0  0  0  0  0  0  0
   -2.3510    0.4822   -1.6821 H   0  0  0  0  0  0  0  0  0  0  0  0
  1  2  1  0  0  0  0
  2  3  1  0  0  0  0
  2  4  1  0  0  0  0
  4  5  1  0  0  0  0
  4  6  1  0  0  0  0
  6  7  1  0  0  0  0
  6  8  1  0  0  0  0
  8  9  1  0  0  0  0
  8 10  1  0  0  0  0
 10 11  1  0  0  0  0
  2 12  1  0  0  0  0
 10 12  1  0  0  0  0
 10 13  1  0  0  0  0
  8 14  1  0  0  0  0
  6 15  1  0  0  0  0
  4 16  1  0  0  0  0
  1 17  1  0  0  0  0
  1 18  1  0  0  0  0
  1 19  1  0  0  0  0
 13 20  1  0  0  0  0
 14 21  1  0  0  0  0
 15 22  1  0  0  0  0
 16 23  1  0  0  0  0
 17 24  1  0  0  0  0
M  END
