 xtb: 6.7.1 (edcfbbe)
          04032521143D

 20 20  0     0  0            999 V2000
   -2.2399   -0.1560   -0.4352 C   0  0  0  0  0  0  0  0  0  0  0  0
   -1.0568    0.0960    0.3574 N   0  0  0  0  0  0  0  0  0  0  0  0
   -0.2874    1.2068   -0.1921 C   0  0  0  0  0  0  0  0  0  0  0  0
    1.1368    1.1987    0.3468 C   0  0  0  0  0  0  0  0  0  0  0  0
    1.8967   -0.0257   -0.1804 C   0  0  0  0  0  0  0  0  0  0  0  0
    0.9350   -1.2020   -0.3922 C   0  0  0  0  0  0  0  0  0  0  0  0
   -0.2371   -1.0925    0.5836 C   0  0  0  0  0  0  0  0  0  0  0  0
   -2.0137   -0.4830   -1.4636 H   0  0  0  0  0  0  0  0  0  0  0  0
   -2.8227    0.7628   -0.4909 H   0  0  0  0  0  0  0  0  0  0  0  0
   -2.8433   -0.9200    0.0517 H   0  0  0  0  0  0  0  0  0  0  0  0
   -0.2536    1.1692   -1.2959 H   0  0  0  0  0  0  0  0  0  0  0  0
   -0.7984    2.1332    0.0908 H   0  0  0  0  0  0  0  0  0  0  0  0
    1.6447    2.1160    0.0485 H   0  0  0  0  0  0  0  0  0  0  0  0
    1.0925    1.1791    1.4358 H   0  0  0  0  0  0  0  0  0  0  0  0
    2.3865    0.2180   -1.1248 H   0  0  0  0  0  0  0  0  0  0  0  0
    2.6740   -0.3027    0.5328 H   0  0  0  0  0  0  0  0  0  0  0  0
    0.5443   -1.1923   -1.4124 H   0  0  0  0  0  0  0  0  0  0  0  0
    1.4511   -2.1512   -0.2468 H   0  0  0  0  0  0  0  0  0  0  0  0
   -0.8754   -1.9749    0.5129 H   0  0  0  0  0  0  0  0  0  0  0  0
    0.1527   -1.0454    1.6065 H   0  0  0  0  0  0  0  0  0  0  0  0
  1  2  1  0  0  0  0
  2  3  1  0  0  0  0
  3  4  1  0  0  0  0
  4  5  1  0  0  0  0
  5  6  1  0  0  0  0
  2  7  1  0  0  0  0
  6  7  1  0  0  0  0
  1  8  1  0  0  0  0
  1  9  1  0  0  0  0
  1 10  1  0  0  0  0
  3 11  1  0  0  0  0
  3 12  1  0  0  0  0
  4 13  1  0  0  0  0
  4 14  1  0  0  0  0
  5 15  1  0  0  0  0
  5 16  1  0  0  0  0
  6 17  1  0  0  0  0
  6 18  1  0  0  0  0
  7 19  1  0  0  0  0
  7 20  1  0  0  0  0
M  END
