 xtb: 6.7.1 (edcfbbe)
          04062518003D

 24 24  0     0  0            999 V2000
   -2.3900   -1.1823   -0.2457 C   0  0  0  0  0  0  0  0  0  0  0  0
   -1.0795   -0.6292    0.3467 C   0  0  0  0  0  0  0  0  0  0  0  0
   -1.1277   -0.6163    1.4474 H   0  0  0  0  0  0  0  0  0  0  0  0
   -0.8037    0.8143   -0.1076 C   0  0  0  0  0  0  0  0  0  0  0  0
   -0.9739    0.8977   -1.1906 H   0  0  0  0  0  0  0  0  0  0  0  0
    0.6481    1.2242    0.1867 C   0  0  0  0  0  0  0  0  0  0  0  0
    0.7672    1.3324    1.2773 H   0  0  0  0  0  0  0  0  0  0  0  0
    1.6317    0.1555   -0.2914 C   0  0  0  0  0  0  0  0  0  0  0  0
    1.5740    0.0767   -1.3885 H   0  0  0  0  0  0  0  0  0  0  0  0
    1.2252   -1.1959    0.3265 C   0  0  0  0  0  0  0  0  0  0  0  0
    1.2907   -1.1186    1.4259 H   0  0  0  0  0  0  0  0  0  0  0  0
   -0.0775   -1.5318   -0.0785 O   0  0  0  0  0  0  0  0  0  0  0  0
    2.0799   -2.2133   -0.0581 O   0  0  0  0  0  0  0  0  0  0  0  0
    2.9240    0.5360    0.1099 O   0  0  0  0  0  0  0  0  0  0  0  0
    0.8671    2.4617   -0.4456 O   0  0  0  0  0  0  0  0  0  0  0  0
   -1.6886    1.6451    0.6005 O   0  0  0  0  0  0  0  0  0  0  0  0
   -3.4455   -0.2657   -0.3058 O   0  0  0  0  0  0  0  0  0  0  0  0
   -2.6752   -2.0753    0.3264 H   0  0  0  0  0  0  0  0  0  0  0  0
   -2.1888   -1.4845   -1.2766 H   0  0  0  0  0  0  0  0  0  0  0  0
    1.7664   -2.5898   -0.8959 H   0  0  0  0  0  0  0  0  0  0  0  0
    3.5219   -0.2201    0.0061 H   0  0  0  0  0  0  0  0  0  0  0  0
    1.7990    2.7023   -0.3379 H   0  0  0  0  0  0  0  0  0  0  0  0
   -1.5412    2.5604    0.3201 H   0  0  0  0  0  0  0  0  0  0  0  0
   -3.5241    0.1985    0.5405 H   0  0  0  0  0  0  0  0  0  0  0  0
  1  2  1  0  0  0  0
  2  3  1  0  0  0  0
  2  4  1  0  0  0  0
  4  5  1  0  0  0  0
  4  6  1  0  0  0  0
  6  7  1  0  0  0  0
  6  8  1  0  0  0  0
  8  9  1  0  0  0  0
  8 10  1  0  0  0  0
 10 11  1  0  0  0  0
  2 12  1  0  0  0  0
 10 12  1  0  0  0  0
 10 13  1  0  0  0  0
  8 14  1  0  0  0  0
  6 15  1  0  0  0  0
  4 16  1  0  0  0  0
  1 17  1  0  0  0  0
  1 18  1  0  0  0  0
  1 19  1  0  0  0  0
 13 20  1  0  0  0  0
 14 21  1  0  0  0  0
 15 22  1  0  0  0  0
 16 23  1  0  0  0  0
 17 24  1  0  0  0  0
M  END
