 xtb: 6.7.1 (edcfbbe)
          04032520573D

 24 25  0     0  0            999 V2000
   -3.9758   -0.4947   -0.0015 C   0  0  0  0  0  0  0  0  0  0  0  0
   -2.5313   -0.0926    0.0005 C   0  0  0  0  0  0  0  0  0  0  0  0
   -2.1687    1.2676    0.0005 C   0  0  0  0  0  0  0  0  0  0  0  0
   -0.8565    1.6497    0.0004 C   0  0  0  0  0  0  0  0  0  0  0  0
    0.1760    0.6901    0.0002 C   0  0  0  0  0  0  0  0  0  0  0  0
    1.5398    1.0488   -0.0005 C   0  0  0  0  0  0  0  0  0  0  0  0
    2.5289    0.1012   -0.0009 C   0  0  0  0  0  0  0  0  0  0  0  0
    2.1660   -1.2624   -0.0002 C   0  0  0  0  0  0  0  0  0  0  0  0
    0.8563   -1.6449    0.0005 C   0  0  0  0  0  0  0  0  0  0  0  0
   -0.1778   -0.6838    0.0005 C   0  0  0  0  0  0  0  0  0  0  0  0
   -1.5392   -1.0412    0.0006 C   0  0  0  0  0  0  0  0  0  0  0  0
    3.9802    0.4719    0.0002 C   0  0  0  0  0  0  0  0  0  0  0  0
   -4.6226    0.3780    0.0222 H   0  0  0  0  0  0  0  0  0  0  0  0
   -4.2051   -1.0740   -0.8946 H   0  0  0  0  0  0  0  0  0  0  0  0
   -4.1968   -1.1169    0.8642 H   0  0  0  0  0  0  0  0  0  0  0  0
   -2.9482    2.0162    0.0006 H   0  0  0  0  0  0  0  0  0  0  0  0
   -0.5918    2.6976    0.0005 H   0  0  0  0  0  0  0  0  0  0  0  0
    1.7938    2.1000   -0.0010 H   0  0  0  0  0  0  0  0  0  0  0  0
    2.9493   -2.0069   -0.0004 H   0  0  0  0  0  0  0  0  0  0  0  0
    0.5906   -2.6926    0.0007 H   0  0  0  0  0  0  0  0  0  0  0  0
   -1.7971   -2.0915    0.0008 H   0  0  0  0  0  0  0  0  0  0  0  0
    4.1061    1.5508   -0.0318 H   0  0  0  0  0  0  0  0  0  0  0  0
    4.4650    0.0895    0.8974 H   0  0  0  0  0  0  0  0  0  0  0  0
    4.4819    0.0340   -0.8613 H   0  0  0  0  0  0  0  0  0  0  0  0
  1  2  1  0  0  0  0
  2  3  4  0  0  0  0
  3  4  2  0  0  0  0
  4  5  4  0  0  0  0
  5  6  4  0  0  0  0
  6  7  2  0  0  0  0
  7  8  4  0  0  0  0
  8  9  2  0  0  0  0
  5 10  4  0  0  0  0
  9 10  4  0  0  0  0
  2 11  2  0  0  0  0
 10 11  4  0  0  0  0
  7 12  1  0  0  0  0
  1 13  1  0  0  0  0
  1 14  1  0  0  0  0
  1 15  1  0  0  0  0
  3 16  1  0  0  0  0
  4 17  1  0  0  0  0
  6 18  1  0  0  0  0
  8 19  1  0  0  0  0
  9 20  1  0  0  0  0
 11 21  1  0  0  0  0
 12 22  1  0  0  0  0
 12 23  1  0  0  0  0
 12 24  1  0  0  0  0
M  END
