 xtb: 6.7.1 (edcfbbe)
          04062518003D

 24 24  0     0  0            999 V2000
   -1.8709   -0.5956   -0.8594 C   0  0  0  0  0  0  0  0  0  0  0  0
   -1.1998   -0.1399    0.4463 C   0  0  0  0  0  0  0  0  0  0  0  0
   -1.9590   -0.1735    1.2389 H   0  0  0  0  0  0  0  0  0  0  0  0
   -0.6351    1.2853    0.3588 C   0  0  0  0  0  0  0  0  0  0  0  0
   -1.3941    1.9282   -0.1104 H   0  0  0  0  0  0  0  0  0  0  0  0
    0.6485    1.3296   -0.4944 C   0  0  0  0  0  0  0  0  0  0  0  0
    1.1149    2.3126   -0.3366 H   0  0  0  0  0  0  0  0  0  0  0  0
    1.6555    0.2915    0.0284 C   0  0  0  0  0  0  0  0  0  0  0  0
    2.4358    0.1567   -0.7282 H   0  0  0  0  0  0  0  0  0  0  0  0
    1.0245   -1.0978    0.2555 C   0  0  0  0  0  0  0  0  0  0  0  0
    1.6739   -1.6274    0.9701 H   0  0  0  0  0  0  0  0  0  0  0  0
   -0.2214   -1.0708    0.9093 O   0  0  0  0  0  0  0  0  0  0  0  0
    0.9762   -1.7691   -0.9658 O   0  0  0  0  0  0  0  0  0  0  0  0
    2.2920    0.7444    1.1935 O   0  0  0  0  0  0  0  0  0  0  0  0
    0.3978    1.0969   -1.8546 O   0  0  0  0  0  0  0  0  0  0  0  0
   -0.2840    1.7860    1.6296 O   0  0  0  0  0  0  0  0  0  0  0  0
   -2.7235   -1.6962   -0.6419 O   0  0  0  0  0  0  0  0  0  0  0  0
   -1.1070   -0.8248   -1.6096 H   0  0  0  0  0  0  0  0  0  0  0  0
   -2.5134    0.2022   -1.2353 H   0  0  0  0  0  0  0  0  0  0  0  0
    0.8632   -2.7206   -0.8236 H   0  0  0  0  0  0  0  0  0  0  0  0
    1.6119    1.0676    1.8109 H   0  0  0  0  0  0  0  0  0  0  0  0
    0.1080    1.9145   -2.2831 H   0  0  0  0  0  0  0  0  0  0  0  0
   -1.0625    1.8101    2.2050 H   0  0  0  0  0  0  0  0  0  0  0  0
   -2.2136   -2.4082   -0.2312 H   0  0  0  0  0  0  0  0  0  0  0  0
  1  2  1  0  0  0  0
  2  3  1  0  0  0  0
  2  4  1  0  0  0  0
  4  5  1  0  0  0  0
  4  6  1  0  0  0  0
  6  7  1  0  0  0  0
  6  8  1  0  0  0  0
  8  9  1  0  0  0  0
  8 10  1  0  0  0  0
 10 11  1  0  0  0  0
  2 12  1  0  0  0  0
 10 12  1  0  0  0  0
 10 13  1  0  0  0  0
  8 14  1  0  0  0  0
  6 15  1  0  0  0  0
  4 16  1  0  0  0  0
  1 17  1  0  0  0  0
  1 18  1  0  0  0  0
  1 19  1  0  0  0  0
 13 20  1  0  0  0  0
 14 21  1  0  0  0  0
 15 22  1  0  0  0  0
 16 23  1  0  0  0  0
 17 24  1  0  0  0  0
M  END
