 xtb: 6.7.1 (edcfbbe)
          04032521093D

 20 19  0     0  0            999 V2000
   -2.1693    0.0068   -0.0000 C   0  0  0  0  0  0  0  0  0  0  0  0
   -0.8774    0.8175    0.0001 C   0  0  0  0  0  0  0  0  0  0  0  0
    0.4267   -0.0017    0.0000 C   0  0  0  0  0  0  0  0  0  0  0  0
    1.6013    0.9836    0.0000 C   0  0  0  0  0  0  0  0  0  0  0  0
    0.5206   -0.8802   -1.2499 C   0  0  0  0  0  0  0  0  0  0  0  0
    0.5206   -0.8803    1.2499 C   0  0  0  0  0  0  0  0  0  0  0  0
   -2.2390   -0.6218    0.8834 H   0  0  0  0  0  0  0  0  0  0  0  0
   -3.0222    0.6821   -0.0005 H   0  0  0  0  0  0  0  0  0  0  0  0
   -2.2385   -0.6225   -0.8830 H   0  0  0  0  0  0  0  0  0  0  0  0
   -0.8739    1.4653    0.8805 H   0  0  0  0  0  0  0  0  0  0  0  0
   -0.8739    1.4654   -0.8803 H   0  0  0  0  0  0  0  0  0  0  0  0
    1.5678    1.6197   -0.8818 H   0  0  0  0  0  0  0  0  0  0  0  0
    2.5483    0.4488   -0.0001 H   0  0  0  0  0  0  0  0  0  0  0  0
    1.5680    1.6195    0.8820 H   0  0  0  0  0  0  0  0  0  0  0  0
    0.4006   -0.2799   -2.1491 H   0  0  0  0  0  0  0  0  0  0  0  0
    1.4915   -1.3688   -1.2915 H   0  0  0  0  0  0  0  0  0  0  0  0
   -0.2440   -1.6522   -1.2436 H   0  0  0  0  0  0  0  0  0  0  0  0
    1.4913   -1.3695    1.2911 H   0  0  0  0  0  0  0  0  0  0  0  0
   -0.2445   -1.6518    1.2438 H   0  0  0  0  0  0  0  0  0  0  0  0
    0.4012   -0.2800    2.1491 H   0  0  0  0  0  0  0  0  0  0  0  0
  1  2  1  0  0  0  0
  2  3  1  0  0  0  0
  3  4  1  0  0  0  0
  3  5  1  0  0  0  0
  3  6  1  0  0  0  0
  1  7  1  0  0  0  0
  1  8  1  0  0  0  0
  1  9  1  0  0  0  0
  2 10  1  0  0  0  0
  2 11  1  0  0  0  0
  4 12  1  0  0  0  0
  4 13  1  0  0  0  0
  4 14  1  0  0  0  0
  5 15  1  0  0  0  0
  5 16  1  0  0  0  0
  5 17  1  0  0  0  0
  6 18  1  0  0  0  0
  6 19  1  0  0  0  0
  6 20  1  0  0  0  0
M  END
