 xtb: 6.7.1 (edcfbbe)
          04062518003D

 24 24  0     0  0            999 V2000
   -2.5143   -0.5905   -0.2620 C   0  0  0  0  0  0  0  0  0  0  0  0
   -1.2635   -0.4439    0.6198 C   0  0  0  0  0  0  0  0  0  0  0  0
   -1.4961   -0.7650    1.6470 H   0  0  0  0  0  0  0  0  0  0  0  0
   -0.7439    1.0037    0.7342 C   0  0  0  0  0  0  0  0  0  0  0  0
   -1.5842    1.6921    0.5573 H   0  0  0  0  0  0  0  0  0  0  0  0
    0.3443    1.3170   -0.3096 C   0  0  0  0  0  0  0  0  0  0  0  0
    0.7992    2.2816   -0.0456 H   0  0  0  0  0  0  0  0  0  0  0  0
    1.4877    0.2646   -0.2829 C   0  0  0  0  0  0  0  0  0  0  0  0
    1.7413    0.0082   -1.3197 H   0  0  0  0  0  0  0  0  0  0  0  0
    1.0307   -1.0307    0.4035 C   0  0  0  0  0  0  0  0  0  0  0  0
    1.1141   -0.8938    1.4976 H   0  0  0  0  0  0  0  0  0  0  0  0
   -0.3036   -1.3275    0.0579 O   0  0  0  0  0  0  0  0  0  0  0  0
    1.8228   -2.0661   -0.0492 O   0  0  0  0  0  0  0  0  0  0  0  0
    2.6118    0.7329    0.4187 O   0  0  0  0  0  0  0  0  0  0  0  0
   -0.1931    1.4936   -1.5928 O   0  0  0  0  0  0  0  0  0  0  0  0
   -0.2682    1.1516    2.0529 O   0  0  0  0  0  0  0  0  0  0  0  0
   -2.2031   -0.4424   -1.6276 O   0  0  0  0  0  0  0  0  0  0  0  0
   -3.2426    0.1828   -0.0164 H   0  0  0  0  0  0  0  0  0  0  0  0
   -2.9570   -1.5741   -0.0798 H   0  0  0  0  0  0  0  0  0  0  0  0
    1.5166   -2.9052    0.3295 H   0  0  0  0  0  0  0  0  0  0  0  0
    3.1271    1.3252   -0.1471 H   0  0  0  0  0  0  0  0  0  0  0  0
   -0.9156    0.8479   -1.7517 H   0  0  0  0  0  0  0  0  0  0  0  0
    0.0307    2.0603    2.2008 H   0  0  0  0  0  0  0  0  0  0  0  0
   -1.6435   -1.1911   -1.8866 H   0  0  0  0  0  0  0  0  0  0  0  0
  1  2  1  0  0  0  0
  2  3  1  0  0  0  0
  2  4  1  0  0  0  0
  4  5  1  0  0  0  0
  4  6  1  0  0  0  0
  6  7  1  0  0  0  0
  6  8  1  0  0  0  0
  8  9  1  0  0  0  0
  8 10  1  0  0  0  0
 10 11  1  0  0  0  0
  2 12  1  0  0  0  0
 10 12  1  0  0  0  0
 10 13  1  0  0  0  0
  8 14  1  0  0  0  0
  6 15  1  0  0  0  0
  4 16  1  0  0  0  0
  1 17  1  0  0  0  0
  1 18  1  0  0  0  0
  1 19  1  0  0  0  0
 13 20  1  0  0  0  0
 14 21  1  0  0  0  0
 15 22  1  0  0  0  0
 16 23  1  0  0  0  0
 17 24  1  0  0  0  0
M  END
