 xtb: 6.7.1 (edcfbbe)
          04042516093D

 13 12  0     0  0            999 V2000
    1.2047    1.2612    0.0528 C   0  0  0  0  0  0  0  0  0  0  0  0
    0.4330   -0.0001   -0.3458 C   0  0  0  0  0  0  0  0  0  0  0  0
    1.2104   -1.2580    0.0521 C   0  0  0  0  0  0  0  0  0  0  0  0
   -0.8824   -0.0025    0.3681 C   0  0  0  0  0  0  0  0  0  0  0  0
   -1.9706   -0.0008   -0.1545 O   0  0  0  0  0  0  0  0  0  0  0  0
    2.1674    1.2726   -0.4499 H   0  0  0  0  0  0  0  0  0  0  0  0
    1.3711    1.2799    1.1269 H   0  0  0  0  0  0  0  0  0  0  0  0
    0.6526    2.1537   -0.2311 H   0  0  0  0  0  0  0  0  0  0  0  0
    0.2490   -0.0001   -1.4239 H   0  0  0  0  0  0  0  0  0  0  0  0
    2.1731   -1.2650   -0.4506 H   0  0  0  0  0  0  0  0  0  0  0  0
    0.6624   -2.1530   -0.2321 H   0  0  0  0  0  0  0  0  0  0  0  0
    1.3770   -1.2766    1.1262 H   0  0  0  0  0  0  0  0  0  0  0  0
   -0.7959   -0.0055    1.4706 H   0  0  0  0  0  0  0  0  0  0  0  0
  1  2  1  0  0  0  0
  2  3  1  0  0  0  0
  2  4  1  0  0  0  0
  4  5  2  0  0  0  0
  1  6  1  0  0  0  0
  1  7  1  0  0  0  0
  1  8  1  0  0  0  0
  2  9  1  0  0  0  0
  3 10  1  0  0  0  0
  3 11  1  0  0  0  0
  3 12  1  0  0  0  0
  4 13  1  0  0  0  0
M  END
