 xtb: 6.7.1 (edcfbbe)
          04062518003D

 24 24  0     0  0            999 V2000
   -1.9015   -0.6458   -0.8517 C   0  0  0  0  0  0  0  0  0  0  0  0
   -1.1723   -0.1726    0.4157 C   0  0  0  0  0  0  0  0  0  0  0  0
   -1.9149   -0.1983    1.2232 H   0  0  0  0  0  0  0  0  0  0  0  0
   -0.6172    1.2566    0.2909 C   0  0  0  0  0  0  0  0  0  0  0  0
   -1.3487    1.8755   -0.2466 H   0  0  0  0  0  0  0  0  0  0  0  0
    0.7058    1.2958   -0.5062 C   0  0  0  0  0  0  0  0  0  0  0  0
    1.1122    2.3110   -0.4092 H   0  0  0  0  0  0  0  0  0  0  0  0
    1.7079    0.3093    0.1088 C   0  0  0  0  0  0  0  0  0  0  0  0
    2.5706    0.2083   -0.5600 H   0  0  0  0  0  0  0  0  0  0  0  0
    1.0639   -1.0895    0.2319 C   0  0  0  0  0  0  0  0  0  0  0  0
    1.6968   -1.6932    0.8987 H   0  0  0  0  0  0  0  0  0  0  0  0
   -0.1818   -1.0888    0.8772 O   0  0  0  0  0  0  0  0  0  0  0  0
    1.0082   -1.6452   -1.0528 O   0  0  0  0  0  0  0  0  0  0  0  0
    2.2135    0.7466    1.3392 O   0  0  0  0  0  0  0  0  0  0  0  0
    0.5000    1.0664   -1.8761 O   0  0  0  0  0  0  0  0  0  0  0  0
   -0.3387    1.8094    1.5581 O   0  0  0  0  0  0  0  0  0  0  0  0
   -2.8509   -1.6174   -0.4655 O   0  0  0  0  0  0  0  0  0  0  0  0
   -1.1893   -1.0619   -1.5680 H   0  0  0  0  0  0  0  0  0  0  0  0
   -2.4009    0.2173   -1.3094 H   0  0  0  0  0  0  0  0  0  0  0  0
    0.8025   -2.5910   -0.9972 H   0  0  0  0  0  0  0  0  0  0  0  0
    1.4740    1.0787    1.8791 H   0  0  0  0  0  0  0  0  0  0  0  0
    0.6355    0.1239   -2.0639 H   0  0  0  0  0  0  0  0  0  0  0  0
   -1.1551    1.8917    2.0718 H   0  0  0  0  0  0  0  0  0  0  0  0
   -3.3014   -1.9548   -1.2522 H   0  0  0  0  0  0  0  0  0  0  0  0
  1  2  1  0  0  0  0
  2  3  1  0  0  0  0
  2  4  1  0  0  0  0
  4  5  1  0  0  0  0
  4  6  1  0  0  0  0
  6  7  1  0  0  0  0
  6  8  1  0  0  0  0
  8  9  1  0  0  0  0
  8 10  1  0  0  0  0
 10 11  1  0  0  0  0
  2 12  1  0  0  0  0
 10 12  1  0  0  0  0
 10 13  1  0  0  0  0
  8 14  1  0  0  0  0
  6 15  1  0  0  0  0
  4 16  1  0  0  0  0
  1 17  1  0  0  0  0
  1 18  1  0  0  0  0
  1 19  1  0  0  0  0
 13 20  1  0  0  0  0
 14 21  1  0  0  0  0
 15 22  1  0  0  0  0
 16 23  1  0  0  0  0
 17 24  1  0  0  0  0
M  END
