 xtb: 6.7.1 (edcfbbe)
          04062518003D

 24 24  0     0  0            999 V2000
   -2.4373   -0.2121   -0.5849 C   0  0  0  0  0  0  0  0  0  0  0  0
   -1.2179   -0.2079    0.3458 C   0  0  0  0  0  0  0  0  0  0  0  0
   -1.5154   -0.5629    1.3470 H   0  0  0  0  0  0  0  0  0  0  0  0
   -0.6060    1.2037    0.4839 C   0  0  0  0  0  0  0  0  0  0  0  0
   -1.3579    1.9460    0.1923 H   0  0  0  0  0  0  0  0  0  0  0  0
    0.5921    1.3450   -0.4680 C   0  0  0  0  0  0  0  0  0  0  0  0
    1.0347    2.3415   -0.3123 H   0  0  0  0  0  0  0  0  0  0  0  0
    1.6698    0.3086   -0.0807 C   0  0  0  0  0  0  0  0  0  0  0  0
    2.3092    0.0902   -0.9425 H   0  0  0  0  0  0  0  0  0  0  0  0
    1.0041   -1.0211    0.3406 C   0  0  0  0  0  0  0  0  0  0  0  0
    0.9387   -1.0454    1.4489 H   0  0  0  0  0  0  0  0  0  0  0  0
   -0.2940   -1.1413   -0.1960 O   0  0  0  0  0  0  0  0  0  0  0  0
    1.7681   -2.0653   -0.1393 O   0  0  0  0  0  0  0  0  0  0  0  0
    2.5209    0.8084    0.9137 O   0  0  0  0  0  0  0  0  0  0  0  0
    0.1148    1.2101   -1.7780 O   0  0  0  0  0  0  0  0  0  0  0  0
   -0.1299    1.4496    1.7872 O   0  0  0  0  0  0  0  0  0  0  0  0
   -3.0430   -1.4764   -0.6554 O   0  0  0  0  0  0  0  0  0  0  0  0
   -2.1118    0.1289   -1.5741 H   0  0  0  0  0  0  0  0  0  0  0  0
   -3.1986    0.4657   -0.1952 H   0  0  0  0  0  0  0  0  0  0  0  0
    1.3225   -2.9102    0.0309 H   0  0  0  0  0  0  0  0  0  0  0  0
    1.9794    1.1071    1.6635 H   0  0  0  0  0  0  0  0  0  0  0  0
    0.8464    1.3047   -2.4047 H   0  0  0  0  0  0  0  0  0  0  0  0
   -0.8683    1.6483    2.3804 H   0  0  0  0  0  0  0  0  0  0  0  0
   -2.3905   -2.1050   -0.9952 H   0  0  0  0  0  0  0  0  0  0  0  0
  1  2  1  0  0  0  0
  2  3  1  0  0  0  0
  2  4  1  0  0  0  0
  4  5  1  0  0  0  0
  4  6  1  0  0  0  0
  6  7  1  0  0  0  0
  6  8  1  0  0  0  0
  8  9  1  0  0  0  0
  8 10  1  0  0  0  0
 10 11  1  0  0  0  0
  2 12  1  0  0  0  0
 10 12  1  0  0  0  0
 10 13  1  0  0  0  0
  8 14  1  0  0  0  0
  6 15  1  0  0  0  0
  4 16  1  0  0  0  0
  1 17  1  0  0  0  0
  1 18  1  0  0  0  0
  1 19  1  0  0  0  0
 13 20  1  0  0  0  0
 14 21  1  0  0  0  0
 15 22  1  0  0  0  0
 16 23  1  0  0  0  0
 17 24  1  0  0  0  0
M  END
