 xtb: 6.7.1 (edcfbbe)
          04062518003D

 24 24  0     0  0            999 V2000
   -2.5344   -0.7072   -0.3948 C   0  0  0  0  0  0  0  0  0  0  0  0
   -1.1600   -0.3433    0.1640 C   0  0  0  0  0  0  0  0  0  0  0  0
   -1.2263   -0.3350    1.2635 H   0  0  0  0  0  0  0  0  0  0  0  0
   -0.7005    1.0455   -0.3332 C   0  0  0  0  0  0  0  0  0  0  0  0
   -0.6817    1.0471   -1.4285 H   0  0  0  0  0  0  0  0  0  0  0  0
    0.7199    1.3239    0.1798 C   0  0  0  0  0  0  0  0  0  0  0  0
    0.6978    1.4016    1.2806 H   0  0  0  0  0  0  0  0  0  0  0  0
    1.6489    0.1608   -0.1890 C   0  0  0  0  0  0  0  0  0  0  0  0
    1.7495    0.1238   -1.2849 H   0  0  0  0  0  0  0  0  0  0  0  0
    1.0407   -1.1709    0.2977 C   0  0  0  0  0  0  0  0  0  0  0  0
    1.0076   -1.1607    1.4021 H   0  0  0  0  0  0  0  0  0  0  0  0
   -0.2433   -1.3438   -0.2391 O   0  0  0  0  0  0  0  0  0  0  0  0
    1.8263   -2.2487   -0.0735 O   0  0  0  0  0  0  0  0  0  0  0  0
    2.8974    0.3971    0.4131 O   0  0  0  0  0  0  0  0  0  0  0  0
    1.1713    2.5319   -0.3761 O   0  0  0  0  0  0  0  0  0  0  0  0
   -1.6104    2.0469    0.0235 O   0  0  0  0  0  0  0  0  0  0  0  0
   -3.1490   -1.6266    0.4781 O   0  0  0  0  0  0  0  0  0  0  0  0
   -2.3913   -1.1412   -1.3904 H   0  0  0  0  0  0  0  0  0  0  0  0
   -3.1245    0.2141   -0.4720 H   0  0  0  0  0  0  0  0  0  0  0  0
    1.5350   -2.5651   -0.9432 H   0  0  0  0  0  0  0  0  0  0  0  0
    3.4460   -0.3970    0.3240 H   0  0  0  0  0  0  0  0  0  0  0  0
    2.1006    2.6539   -0.1287 H   0  0  0  0  0  0  0  0  0  0  0  0
   -1.5370    2.2437    0.9691 H   0  0  0  0  0  0  0  0  0  0  0  0
   -3.9967   -1.9039    0.1029 H   0  0  0  0  0  0  0  0  0  0  0  0
  1  2  1  0  0  0  0
  2  3  1  0  0  0  0
  2  4  1  0  0  0  0
  4  5  1  0  0  0  0
  4  6  1  0  0  0  0
  6  7  1  0  0  0  0
  6  8  1  0  0  0  0
  8  9  1  0  0  0  0
  8 10  1  0  0  0  0
 10 11  1  0  0  0  0
  2 12  1  0  0  0  0
 10 12  1  0  0  0  0
 10 13  1  0  0  0  0
  8 14  1  0  0  0  0
  6 15  1  0  0  0  0
  4 16  1  0  0  0  0
  1 17  1  0  0  0  0
  1 18  1  0  0  0  0
  1 19  1  0  0  0  0
 13 20  1  0  0  0  0
 14 21  1  0  0  0  0
 15 22  1  0  0  0  0
 16 23  1  0  0  0  0
 17 24  1  0  0  0  0
M  END
