 xtb: 6.7.1 (edcfbbe)
          04062518003D

 24 24  0     0  0            999 V2000
   -2.1899   -0.6436   -0.7336 C   0  0  0  0  0  0  0  0  0  0  0  0
   -1.3894   -0.4815    0.5789 C   0  0  0  0  0  0  0  0  0  0  0  0
   -2.0909   -0.7346    1.3870 H   0  0  0  0  0  0  0  0  0  0  0  0
   -0.8804    0.9485    0.8207 C   0  0  0  0  0  0  0  0  0  0  0  0
   -1.6875    1.6517    0.5690 H   0  0  0  0  0  0  0  0  0  0  0  0
    0.3249    1.3161   -0.0618 C   0  0  0  0  0  0  0  0  0  0  0  0
    0.9795    1.9570    0.5454 H   0  0  0  0  0  0  0  0  0  0  0  0
    1.1432    0.0793   -0.4579 C   0  0  0  0  0  0  0  0  0  0  0  0
    0.7627   -0.3365   -1.4035 H   0  0  0  0  0  0  0  0  0  0  0  0
    0.9760   -1.0073    0.6105 C   0  0  0  0  0  0  0  0  0  0  0  0
    1.2943   -0.6029    1.5929 H   0  0  0  0  0  0  0  0  0  0  0  0
   -0.3546   -1.4569    0.6908 O   0  0  0  0  0  0  0  0  0  0  0  0
    1.7699   -2.0855    0.2484 O   0  0  0  0  0  0  0  0  0  0  0  0
    2.4875    0.4672   -0.5912 O   0  0  0  0  0  0  0  0  0  0  0  0
   -0.1529    2.0202   -1.1840 O   0  0  0  0  0  0  0  0  0  0  0  0
   -0.4751    1.1243    2.1592 O   0  0  0  0  0  0  0  0  0  0  0  0
   -1.5275   -0.2919   -1.9176 O   0  0  0  0  0  0  0  0  0  0  0  0
   -3.1186   -0.0674   -0.6265 H   0  0  0  0  0  0  0  0  0  0  0  0
   -2.4380   -1.7022   -0.8391 H   0  0  0  0  0  0  0  0  0  0  0  0
    1.4876   -2.8703    0.7415 H   0  0  0  0  0  0  0  0  0  0  0  0
    3.0280   -0.3285   -0.7070 H   0  0  0  0  0  0  0  0  0  0  0  0
    0.6019    2.3397   -1.6996 H   0  0  0  0  0  0  0  0  0  0  0  0
   -1.2390    1.0492    2.7503 H   0  0  0  0  0  0  0  0  0  0  0  0
   -1.2962    0.6560   -1.8921 H   0  0  0  0  0  0  0  0  0  0  0  0
  1  2  1  0  0  0  0
  2  3  1  0  0  0  0
  2  4  1  0  0  0  0
  4  5  1  0  0  0  0
  4  6  1  0  0  0  0
  6  7  1  0  0  0  0
  6  8  1  0  0  0  0
  8  9  1  0  0  0  0
  8 10  1  0  0  0  0
 10 11  1  0  0  0  0
  2 12  1  0  0  0  0
 10 12  1  0  0  0  0
 10 13  1  0  0  0  0
  8 14  1  0  0  0  0
  6 15  1  0  0  0  0
  4 16  1  0  0  0  0
  1 17  1  0  0  0  0
  1 18  1  0  0  0  0
  1 19  1  0  0  0  0
 13 20  1  0  0  0  0
 14 21  1  0  0  0  0
 15 22  1  0  0  0  0
 16 23  1  0  0  0  0
 17 24  1  0  0  0  0
M  END
