 xtb: 6.7.1 (edcfbbe)
          04062518003D

 24 24  0     0  0            999 V2000
   -2.5652   -0.6400   -0.3378 C   0  0  0  0  0  0  0  0  0  0  0  0
   -1.1820   -0.2931    0.2230 C   0  0  0  0  0  0  0  0  0  0  0  0
   -1.2414   -0.2358    1.3211 H   0  0  0  0  0  0  0  0  0  0  0  0
   -0.6993    1.0618   -0.3099 C   0  0  0  0  0  0  0  0  0  0  0  0
   -0.6905    1.0300   -1.4109 H   0  0  0  0  0  0  0  0  0  0  0  0
    0.7340    1.3278    0.1677 C   0  0  0  0  0  0  0  0  0  0  0  0
    0.7323    1.4374    1.2642 H   0  0  0  0  0  0  0  0  0  0  0  0
    1.6353    0.1459   -0.1961 C   0  0  0  0  0  0  0  0  0  0  0  0
    1.7020    0.0635   -1.2913 H   0  0  0  0  0  0  0  0  0  0  0  0
    1.0158   -1.1564    0.3353 C   0  0  0  0  0  0  0  0  0  0  0  0
    0.9892   -1.1080    1.4450 H   0  0  0  0  0  0  0  0  0  0  0  0
   -0.2943   -1.3325   -0.1516 O   0  0  0  0  0  0  0  0  0  0  0  0
    1.7995   -2.2033   -0.1055 O   0  0  0  0  0  0  0  0  0  0  0  0
    2.9003    0.3787    0.3670 O   0  0  0  0  0  0  0  0  0  0  0  0
    1.1698    2.5205   -0.4352 O   0  0  0  0  0  0  0  0  0  0  0  0
   -1.5802    2.0527    0.1452 O   0  0  0  0  0  0  0  0  0  0  0  0
   -3.1322   -1.7642    0.2790 O   0  0  0  0  0  0  0  0  0  0  0  0
   -2.4743   -0.7899   -1.4201 H   0  0  0  0  0  0  0  0  0  0  0  0
   -3.2342    0.1984   -0.1399 H   0  0  0  0  0  0  0  0  0  0  0  0
    1.3710   -3.0511    0.0887 H   0  0  0  0  0  0  0  0  0  0  0  0
    3.4729   -0.3804    0.1821 H   0  0  0  0  0  0  0  0  0  0  0  0
    2.1033    2.6554   -0.2145 H   0  0  0  0  0  0  0  0  0  0  0  0
   -1.2153    2.9173   -0.1006 H   0  0  0  0  0  0  0  0  0  0  0  0
   -2.5626   -2.5285    0.1113 H   0  0  0  0  0  0  0  0  0  0  0  0
  1  2  1  0  0  0  0
  2  3  1  0  0  0  0
  2  4  1  0  0  0  0
  4  5  1  0  0  0  0
  4  6  1  0  0  0  0
  6  7  1  0  0  0  0
  6  8  1  0  0  0  0
  8  9  1  0  0  0  0
  8 10  1  0  0  0  0
 10 11  1  0  0  0  0
  2 12  1  0  0  0  0
 10 12  1  0  0  0  0
 10 13  1  0  0  0  0
  8 14  1  0  0  0  0
  6 15  1  0  0  0  0
  4 16  1  0  0  0  0
  1 17  1  0  0  0  0
  1 18  1  0  0  0  0
  1 19  1  0  0  0  0
 13 20  1  0  0  0  0
 14 21  1  0  0  0  0
 15 22  1  0  0  0  0
 16 23  1  0  0  0  0
 17 24  1  0  0  0  0
M  END
