 xtb: 6.7.1 (edcfbbe)
          04032521523D

 16 16  0     0  0            999 V2000
    0.7679   -1.1549   -0.2882 C   0  0  0  0  0  0  0  0  0  0  0  0
   -0.7778   -1.2303   -0.1499 C   0  0  0  0  0  0  0  0  0  0  0  0
   -1.3501    0.0157    0.3470 N   0  0  0  0  0  0  0  0  0  0  0  0
   -0.7482    1.1591   -0.3213 C   0  0  0  0  0  0  0  0  0  0  0  0
    0.7853    1.2320   -0.0821 C   0  0  0  0  0  0  0  0  0  0  0  0
    1.3248   -0.0212    0.4333 N   0  0  0  0  0  0  0  0  0  0  0  0
    1.0511   -1.0329   -1.3368 H   0  0  0  0  0  0  0  0  0  0  0  0
    1.2357   -2.0651    0.0896 H   0  0  0  0  0  0  0  0  0  0  0  0
   -1.2315   -1.4315   -1.1249 H   0  0  0  0  0  0  0  0  0  0  0  0
   -1.0703   -2.0290    0.5332 H   0  0  0  0  0  0  0  0  0  0  0  0
   -1.1835    0.0940    1.3469 H   0  0  0  0  0  0  0  0  0  0  0  0
   -0.9628    1.0517   -1.3876 H   0  0  0  0  0  0  0  0  0  0  0  0
   -1.2399    2.0642    0.0379 H   0  0  0  0  0  0  0  0  0  0  0  0
    1.3011    1.4468   -1.0227 H   0  0  0  0  0  0  0  0  0  0  0  0
    1.0323    2.0208    0.6298 H   0  0  0  0  0  0  0  0  0  0  0  0
    1.0945   -0.1133    1.4192 H   0  0  0  0  0  0  0  0  0  0  0  0
  1  2  1  0  0  0  0
  2  3  1  0  0  0  0
  3  4  1  0  0  0  0
  4  5  1  0  0  0  0
  1  6  1  0  0  0  0
  5  6  1  0  0  0  0
  1  7  1  0  0  0  0
  1  8  1  0  0  0  0
  2  9  1  0  0  0  0
  2 10  1  0  0  0  0
  3 11  1  0  0  0  0
  4 12  1  0  0  0  0
  4 13  1  0  0  0  0
  5 14  1  0  0  0  0
  5 15  1  0  0  0  0
  6 16  1  0  0  0  0
M  END
