 xtb: 6.7.1 (edcfbbe)
          04042519423D

 14 13  0     0  0            999 V2000
   -1.7610   -1.4536    0.1565 C   0  0  0  0  0  0  0  0  0  0  0  0
   -1.6407   -0.0099   -0.3219 C   0  0  0  0  0  0  0  0  0  0  0  0
   -2.9472    0.7489   -0.0869 C   0  0  0  0  0  0  0  0  0  0  0  0
   -0.5241    0.7215    0.4086 C   0  0  0  0  0  0  0  0  0  0  0  0
    1.2566    0.0022   -0.0356 Br  0  0  0  0  0  0  0  0  0  0  0  0
   -1.9995   -1.4833    1.2177 H   0  0  0  0  0  0  0  0  0  0  0  0
   -2.5489   -1.9655   -0.3889 H   0  0  0  0  0  0  0  0  0  0  0  0
   -0.8299   -1.9931   -0.0044 H   0  0  0  0  0  0  0  0  0  0  0  0
   -1.4175   -0.0080   -1.3945 H   0  0  0  0  0  0  0  0  0  0  0  0
   -2.8772    1.7679   -0.4592 H   0  0  0  0  0  0  0  0  0  0  0  0
   -3.1808    0.7817    0.9747 H   0  0  0  0  0  0  0  0  0  0  0  0
   -3.7612    0.2488   -0.6036 H   0  0  0  0  0  0  0  0  0  0  0  0
   -0.6186    0.6231    1.4890 H   0  0  0  0  0  0  0  0  0  0  0  0
   -0.4828    1.7737    0.1324 H   0  0  0  0  0  0  0  0  0  0  0  0
  1  2  1  0  0  0  0
  2  3  1  0  0  0  0
  2  4  1  0  0  0  0
  4  5  1  0  0  0  0
  1  6  1  0  0  0  0
  1  7  1  0  0  0  0
  1  8  1  0  0  0  0
  2  9  1  0  0  0  0
  3 10  1  0  0  0  0
  3 11  1  0  0  0  0
  3 12  1  0  0  0  0
  4 13  1  0  0  0  0
  4 14  1  0  0  0  0
M  END
