 xtb: 6.7.1 (edcfbbe)
          04062518003D

 24 24  0     0  0            999 V2000
   -1.6572   -1.3298   -0.6351 C   0  0  0  0  0  0  0  0  0  0  0  0
   -1.1460   -0.5041    0.5537 C   0  0  0  0  0  0  0  0  0  0  0  0
   -1.9189   -0.5073    1.3301 H   0  0  0  0  0  0  0  0  0  0  0  0
   -0.8807    0.9698    0.1570 C   0  0  0  0  0  0  0  0  0  0  0  0
   -1.2229    1.1385   -0.8712 H   0  0  0  0  0  0  0  0  0  0  0  0
    0.6186    1.2809    0.2047 C   0  0  0  0  0  0  0  0  0  0  0  0
    0.8896    1.4518    1.2600 H   0  0  0  0  0  0  0  0  0  0  0  0
    1.4385    0.1077   -0.3515 C   0  0  0  0  0  0  0  0  0  0  0  0
    1.1525   -0.0702   -1.3936 H   0  0  0  0  0  0  0  0  0  0  0  0
    1.1662   -1.1710    0.4592 C   0  0  0  0  0  0  0  0  0  0  0  0
    1.9405   -1.2824    1.2345 H   0  0  0  0  0  0  0  0  0  0  0  0
   -0.0316   -1.1060    1.1955 O   0  0  0  0  0  0  0  0  0  0  0  0
    1.1905   -2.2537   -0.4172 O   0  0  0  0  0  0  0  0  0  0  0  0
    2.8020    0.4365   -0.3993 O   0  0  0  0  0  0  0  0  0  0  0  0
    0.8596    2.4417   -0.5492 O   0  0  0  0  0  0  0  0  0  0  0  0
   -1.5231    1.8623    1.0364 O   0  0  0  0  0  0  0  0  0  0  0  0
   -2.8615   -0.7437   -1.0723 O   0  0  0  0  0  0  0  0  0  0  0  0
   -1.8200   -2.3593   -0.2944 H   0  0  0  0  0  0  0  0  0  0  0  0
   -0.9079   -1.3352   -1.4356 H   0  0  0  0  0  0  0  0  0  0  0  0
    1.1852   -3.0892    0.0750 H   0  0  0  0  0  0  0  0  0  0  0  0
    3.1545    0.5334    0.4986 H   0  0  0  0  0  0  0  0  0  0  0  0
    1.8055    2.4687   -0.7702 H   0  0  0  0  0  0  0  0  0  0  0  0
   -2.4643    1.9072    0.8180 H   0  0  0  0  0  0  0  0  0  0  0  0
   -3.2244   -1.2659   -1.8015 H   0  0  0  0  0  0  0  0  0  0  0  0
  1  2  1  0  0  0  0
  2  3  1  0  0  0  0
  2  4  1  0  0  0  0
  4  5  1  0  0  0  0
  4  6  1  0  0  0  0
  6  7  1  0  0  0  0
  6  8  1  0  0  0  0
  8  9  1  0  0  0  0
  8 10  1  0  0  0  0
 10 11  1  0  0  0  0
  2 12  1  0  0  0  0
 10 12  1  0  0  0  0
 10 13  1  0  0  0  0
  8 14  1  0  0  0  0
  6 15  1  0  0  0  0
  4 16  1  0  0  0  0
  1 17  1  0  0  0  0
  1 18  1  0  0  0  0
  1 19  1  0  0  0  0
 13 20  1  0  0  0  0
 14 21  1  0  0  0  0
 15 22  1  0  0  0  0
 16 23  1  0  0  0  0
 17 24  1  0  0  0  0
M  END
