 xtb: 6.7.1 (edcfbbe)
          04062511353D

 27 27  0     0  0            999 V2000
    3.2505   -0.5226    0.7800 C   0  0  0  0  0  0  0  0  0  0  0  0
    1.8991   -0.3146    0.1909 C   0  0  0  0  0  0  0  0  0  0  0  0
    1.3040    0.8890    0.1777 C   0  0  0  0  0  0  0  0  0  0  0  0
   -0.0250    1.1351   -0.3483 C   0  0  0  0  0  0  0  0  0  0  0  0
   -0.5159    2.2622   -0.3632 O   0  0  0  0  0  0  0  0  0  0  0  0
   -0.8016   -0.0647   -0.8520 C   0  0  0  0  0  0  0  0  0  0  0  0
   -1.4173    0.2874   -1.6872 H   0  0  0  0  0  0  0  0  0  0  0  0
    0.1482   -1.1377   -1.3870 C   0  0  0  0  0  0  0  0  0  0  0  0
    1.2331   -1.5209   -0.3875 C   0  0  0  0  0  0  0  0  0  0  0  0
   -1.7860   -0.5654    0.2417 C   0  0  0  0  0  0  0  0  0  0  0  0
   -1.2774   -0.3785    1.6716 C   0  0  0  0  0  0  0  0  0  0  0  0
   -3.1210    0.1641    0.0944 C   0  0  0  0  0  0  0  0  0  0  0  0
    3.2313   -1.3622    1.4720 H   0  0  0  0  0  0  0  0  0  0  0  0
    3.5986    0.3653    1.2992 H   0  0  0  0  0  0  0  0  0  0  0  0
    3.9596   -0.7681   -0.0095 H   0  0  0  0  0  0  0  0  0  0  0  0
    1.8043    1.7578    0.5845 H   0  0  0  0  0  0  0  0  0  0  0  0
   -0.4263   -2.0192   -1.6754 H   0  0  0  0  0  0  0  0  0  0  0  0
    0.6275   -0.7430   -2.2867 H   0  0  0  0  0  0  0  0  0  0  0  0
    0.8038   -2.1102    0.4270 H   0  0  0  0  0  0  0  0  0  0  0  0
    1.9797   -2.1514   -0.8739 H   0  0  0  0  0  0  0  0  0  0  0  0
   -1.9527   -1.6340    0.0681 H   0  0  0  0  0  0  0  0  0  0  0  0
   -1.9950   -0.8036    2.3701 H   0  0  0  0  0  0  0  0  0  0  0  0
   -1.1716    0.6808    1.8999 H   0  0  0  0  0  0  0  0  0  0  0  0
   -0.3179   -0.8582    1.8336 H   0  0  0  0  0  0  0  0  0  0  0  0
   -3.8107   -0.1388    0.8787 H   0  0  0  0  0  0  0  0  0  0  0  0
   -3.5785   -0.0504   -0.8687 H   0  0  0  0  0  0  0  0  0  0  0  0
   -2.9639    1.2390    0.1694 H   0  0  0  0  0  0  0  0  0  0  0  0
  1  2  1  0  0  0  0
  2  3  2  0  0  0  0
  3  4  1  0  0  0  0
  4  5  2  0  0  0  0
  4  6  1  0  0  0  0
  6  7  1  0  0  0  0
  6  8  1  0  0  0  0
  2  9  1  0  0  0  0
  8  9  1  0  0  0  0
  6 10  1  0  0  0  0
 10 11  1  0  0  0  0
 10 12  1  0  0  0  0
  1 13  1  0  0  0  0
  1 14  1  0  0  0  0
  1 15  1  0  0  0  0
  3 16  1  0  0  0  0
  8 17  1  0  0  0  0
  8 18  1  0  0  0  0
  9 19  1  0  0  0  0
  9 20  1  0  0  0  0
 10 21  1  0  0  0  0
 11 22  1  0  0  0  0
 11 23  1  0  0  0  0
 11 24  1  0  0  0  0
 12 25  1  0  0  0  0
 12 26  1  0  0  0  0
 12 27  1  0  0  0  0
M  END
