 xtb: 6.7.1 (edcfbbe)
          04032521413D

 15 14  0     0  0            999 V2000
   -2.0982    0.1069    0.0001 C   0  0  0  0  0  0  0  0  0  0  0  0
   -0.7135    0.6705   -0.0002 C   0  0  0  0  0  0  0  0  0  0  0  0
    0.4432    0.0194   -0.0002 C   0  0  0  0  0  0  0  0  0  0  0  0
    1.7495    0.7623    0.0001 C   0  0  0  0  0  0  0  0  0  0  0  0
    0.6042   -1.4720    0.0000 C   0  0  0  0  0  0  0  0  0  0  0  0
   -2.6375    0.4545   -0.8809 H   0  0  0  0  0  0  0  0  0  0  0  0
   -2.1072   -0.9782    0.0042 H   0  0  0  0  0  0  0  0  0  0  0  0
   -2.6392    0.4608    0.8775 H   0  0  0  0  0  0  0  0  0  0  0  0
   -0.6885    1.7545   -0.0010 H   0  0  0  0  0  0  0  0  0  0  0  0
    2.3320    0.4994   -0.8822 H   0  0  0  0  0  0  0  0  0  0  0  0
    1.5930    1.8377    0.0060 H   0  0  0  0  0  0  0  0  0  0  0  0
    2.3365    0.4902    0.8766 H   0  0  0  0  0  0  0  0  0  0  0  0
    1.1821   -1.7804   -0.8706 H   0  0  0  0  0  0  0  0  0  0  0  0
    1.1534   -1.7832    0.8881 H   0  0  0  0  0  0  0  0  0  0  0  0
   -0.3470   -1.9928   -0.0163 H   0  0  0  0  0  0  0  0  0  0  0  0
  1  2  1  0  0  0  0
  2  3  2  0  0  0  0
  3  4  1  0  0  0  0
  3  5  1  0  0  0  0
  1  6  1  0  0  0  0
  1  7  1  0  0  0  0
  1  8  1  0  0  0  0
  2  9  1  0  0  0  0
  4 10  1  0  0  0  0
  4 11  1  0  0  0  0
  4 12  1  0  0  0  0
  5 13  1  0  0  0  0
  5 14  1  0  0  0  0
  5 15  1  0  0  0  0
M  END
