 xtb: 6.7.1 (edcfbbe)
          04062518003D

 24 24  0     0  0            999 V2000
   -2.2652   -0.9523    0.7787 C   0  0  0  0  0  0  0  0  0  0  0  0
   -0.8101   -0.4454    0.7574 C   0  0  0  0  0  0  0  0  0  0  0  0
   -0.5257   -0.1558    1.7801 H   0  0  0  0  0  0  0  0  0  0  0  0
   -0.6264    0.7499   -0.1944 C   0  0  0  0  0  0  0  0  0  0  0  0
   -0.7685    0.3878   -1.2193 H   0  0  0  0  0  0  0  0  0  0  0  0
    0.8081    1.2976   -0.0648 C   0  0  0  0  0  0  0  0  0  0  0  0
    0.8255    2.0616    0.7218 H   0  0  0  0  0  0  0  0  0  0  0  0
    1.7908    0.1680    0.3368 C   0  0  0  0  0  0  0  0  0  0  0  0
    2.7473    0.3598   -0.1664 H   0  0  0  0  0  0  0  0  0  0  0  0
    1.2690   -1.1764   -0.1872 C   0  0  0  0  0  0  0  0  0  0  0  0
    1.9540   -1.9805    0.1235 H   0  0  0  0  0  0  0  0  0  0  0  0
    0.0261   -1.5287    0.3543 O   0  0  0  0  0  0  0  0  0  0  0  0
    1.2200   -1.0741   -1.5807 O   0  0  0  0  0  0  0  0  0  0  0  0
    1.9571    0.0573    1.7269 O   0  0  0  0  0  0  0  0  0  0  0  0
    1.2350    1.9585   -1.2270 O   0  0  0  0  0  0  0  0  0  0  0  0
   -1.6136    1.7315   -0.0060 O   0  0  0  0  0  0  0  0  0  0  0  0
   -2.9082   -0.9188   -0.4688 O   0  0  0  0  0  0  0  0  0  0  0  0
   -2.8293   -0.3721    1.5169 H   0  0  0  0  0  0  0  0  0  0  0  0
   -2.2446   -1.9998    1.0847 H   0  0  0  0  0  0  0  0  0  0  0  0
    0.9072   -1.9107   -1.9575 H   0  0  0  0  0  0  0  0  0  0  0  0
    2.5435    0.7599    2.0440 H   0  0  0  0  0  0  0  0  0  0  0  0
    1.2461    1.3277   -1.9628 H   0  0  0  0  0  0  0  0  0  0  0  0
   -1.4590    2.2067    0.8227 H   0  0  0  0  0  0  0  0  0  0  0  0
   -3.0502    0.0075   -0.7168 H   0  0  0  0  0  0  0  0  0  0  0  0
  1  2  1  0  0  0  0
  2  3  1  0  0  0  0
  2  4  1  0  0  0  0
  4  5  1  0  0  0  0
  4  6  1  0  0  0  0
  6  7  1  0  0  0  0
  6  8  1  0  0  0  0
  8  9  1  0  0  0  0
  8 10  1  0  0  0  0
 10 11  1  0  0  0  0
  2 12  1  0  0  0  0
 10 12  1  0  0  0  0
 10 13  1  0  0  0  0
  8 14  1  0  0  0  0
  6 15  1  0  0  0  0
  4 16  1  0  0  0  0
  1 17  1  0  0  0  0
  1 18  1  0  0  0  0
  1 19  1  0  0  0  0
 13 20  1  0  0  0  0
 14 21  1  0  0  0  0
 15 22  1  0  0  0  0
 16 23  1  0  0  0  0
 17 24  1  0  0  0  0
M  END
