 xtb: 6.7.1 (edcfbbe)
          04032521363D

  6  5  0     0  0            999 V2000
    0.7190   -0.0003   -0.0411 N   0  0  0  0  0  0  0  0  0  0  0  0
   -0.7077   -0.0002    0.1332 N   0  0  0  0  0  0  0  0  0  0  0  0
    0.9897   -0.3012   -0.9776 H   0  0  0  0  0  0  0  0  0  0  0  0
    1.0346    0.9568    0.0838 H   0  0  0  0  0  0  0  0  0  0  0  0
   -0.9853   -0.9588    0.3208 H   0  0  0  0  0  0  0  0  0  0  0  0
   -1.1956    0.3101   -0.7074 H   0  0  0  0  0  0  0  0  0  0  0  0
  1  2  1  0  0  0  0
  1  3  1  0  0  0  0
  1  4  1  0  0  0  0
  2  5  1  0  0  0  0
  2  6  1  0  0  0  0
M  END
