 xtb: 6.7.1 (edcfbbe)
          04062518003D

 24 24  0     0  0            999 V2000
   -1.9077   -0.5922   -0.8268 C   0  0  0  0  0  0  0  0  0  0  0  0
   -1.1773   -0.1129    0.4362 C   0  0  0  0  0  0  0  0  0  0  0  0
   -1.8985   -0.0833    1.2624 H   0  0  0  0  0  0  0  0  0  0  0  0
   -0.5950    1.2996    0.2910 C   0  0  0  0  0  0  0  0  0  0  0  0
   -1.3316    1.9049   -0.2505 H   0  0  0  0  0  0  0  0  0  0  0  0
    0.7113    1.2973   -0.5241 C   0  0  0  0  0  0  0  0  0  0  0  0
    1.1853    2.2887   -0.4183 H   0  0  0  0  0  0  0  0  0  0  0  0
    1.6878    0.2716    0.0810 C   0  0  0  0  0  0  0  0  0  0  0  0
    2.5496    0.1394   -0.5828 H   0  0  0  0  0  0  0  0  0  0  0  0
    1.0308   -1.1123    0.2368 C   0  0  0  0  0  0  0  0  0  0  0  0
    1.6537   -1.6971    0.9321 H   0  0  0  0  0  0  0  0  0  0  0  0
   -0.2191   -1.0735    0.8800 O   0  0  0  0  0  0  0  0  0  0  0  0
    0.9873   -1.7124   -1.0214 O   0  0  0  0  0  0  0  0  0  0  0  0
    2.2008    0.7289    1.3041 O   0  0  0  0  0  0  0  0  0  0  0  0
    0.3809    1.0536   -1.8640 O   0  0  0  0  0  0  0  0  0  0  0  0
   -0.3770    1.8063    1.5909 O   0  0  0  0  0  0  0  0  0  0  0  0
   -2.7409   -1.6935   -0.5470 O   0  0  0  0  0  0  0  0  0  0  0  0
   -1.1783   -0.8369   -1.6062 H   0  0  0  0  0  0  0  0  0  0  0  0
   -2.5644    0.1967   -1.1957 H   0  0  0  0  0  0  0  0  0  0  0  0
    0.7903   -2.6570   -0.9397 H   0  0  0  0  0  0  0  0  0  0  0  0
    1.4525    0.9346    1.8937 H   0  0  0  0  0  0  0  0  0  0  0  0
    1.1862    1.0003   -2.3982 H   0  0  0  0  0  0  0  0  0  0  0  0
   -0.3217    2.7723    1.5661 H   0  0  0  0  0  0  0  0  0  0  0  0
   -2.2261   -2.3516   -0.0584 H   0  0  0  0  0  0  0  0  0  0  0  0
  1  2  1  0  0  0  0
  2  3  1  0  0  0  0
  2  4  1  0  0  0  0
  4  5  1  0  0  0  0
  4  6  1  0  0  0  0
  6  7  1  0  0  0  0
  6  8  1  0  0  0  0
  8  9  1  0  0  0  0
  8 10  1  0  0  0  0
 10 11  1  0  0  0  0
  2 12  1  0  0  0  0
 10 12  1  0  0  0  0
 10 13  1  0  0  0  0
  8 14  1  0  0  0  0
  6 15  1  0  0  0  0
  4 16  1  0  0  0  0
  1 17  1  0  0  0  0
  1 18  1  0  0  0  0
  1 19  1  0  0  0  0
 13 20  1  0  0  0  0
 14 21  1  0  0  0  0
 15 22  1  0  0  0  0
 16 23  1  0  0  0  0
 17 24  1  0  0  0  0
M  END
