 xtb: 6.7.1 (edcfbbe)
          04062508313D

 24 24  0     0  0            999 V2000
   -3.4021   -0.6589   -0.4843 C   0  0  0  0  0  0  0  0  0  0  0  0
   -1.9879   -0.5379   -0.6586 O   0  0  0  0  0  0  0  0  0  0  0  0
   -1.3320    0.2459    0.1892 C   0  0  0  0  0  0  0  0  0  0  0  0
   -1.8843    0.8475    1.0882 O   0  0  0  0  0  0  0  0  0  0  0  0
    0.1461    0.3261   -0.1158 C   0  0  0  0  0  0  0  0  0  0  0  0
    0.6736   -0.9175   -0.8473 C   0  0  0  0  0  0  0  0  0  0  0  0
    2.1824   -1.0855   -0.6252 C   0  0  0  0  0  0  0  0  0  0  0  0
    2.8598    0.2739   -0.4894 C   0  0  0  0  0  0  0  0  0  0  0  0
    2.3940    0.9779    0.7920 C   0  0  0  0  0  0  0  0  0  0  0  0
    0.9565    0.5885    1.1545 C   0  0  0  0  0  0  0  0  0  0  0  0
   -3.7295   -1.3653   -1.2404 H   0  0  0  0  0  0  0  0  0  0  0  0
   -3.8791    0.3122   -0.6209 H   0  0  0  0  0  0  0  0  0  0  0  0
   -3.6246   -1.0242    0.5189 H   0  0  0  0  0  0  0  0  0  0  0  0
    0.2511    1.2039   -0.7653 H   0  0  0  0  0  0  0  0  0  0  0  0
    0.1513   -1.8045   -0.4863 H   0  0  0  0  0  0  0  0  0  0  0  0
    0.4577   -0.8240   -1.9118 H   0  0  0  0  0  0  0  0  0  0  0  0
    2.3665   -1.6626    0.2819 H   0  0  0  0  0  0  0  0  0  0  0  0
    2.6118   -1.6393   -1.4605 H   0  0  0  0  0  0  0  0  0  0  0  0
    3.9433    0.1532   -0.4700 H   0  0  0  0  0  0  0  0  0  0  0  0
    2.6134    0.8796   -1.3629 H   0  0  0  0  0  0  0  0  0  0  0  0
    3.0492    0.7108    1.6218 H   0  0  0  0  0  0  0  0  0  0  0  0
    2.4614    2.0581    0.6560 H   0  0  0  0  0  0  0  0  0  0  0  0
    0.9477   -0.3160    1.7646 H   0  0  0  0  0  0  0  0  0  0  0  0
    0.4786    1.3781    1.7359 H   0  0  0  0  0  0  0  0  0  0  0  0
  1  2  1  0  0  0  0
  2  3  1  0  0  0  0
  3  4  2  0  0  0  0
  3  5  1  0  0  0  0
  5  6  1  0  0  0  0
  6  7  1  0  0  0  0
  7  8  1  0  0  0  0
  8  9  1  0  0  0  0
  5 10  1  0  0  0  0
  9 10  1  0  0  0  0
  1 11  1  0  0  0  0
  1 12  1  0  0  0  0
  1 13  1  0  0  0  0
  5 14  1  0  0  0  0
  6 15  1  0  0  0  0
  6 16  1  0  0  0  0
  7 17  1  0  0  0  0
  7 18  1  0  0  0  0
  8 19  1  0  0  0  0
  8 20  1  0  0  0  0
  9 21  1  0  0  0  0
  9 22  1  0  0  0  0
 10 23  1  0  0  0  0
 10 24  1  0  0  0  0
M  END
