 xtb: 6.7.1 (edcfbbe)
          04042523483D

 16 15  0     0  0            999 V2000
    1.2761    1.0789    0.8000 C   0  0  0  0  0  0  0  0  0  0  0  0
    0.7060    0.2738   -0.3760 C   0  0  0  0  0  0  0  0  0  0  0  0
    1.5056   -1.0075   -0.5959 C   0  0  0  0  0  0  0  0  0  0  0  0
   -0.7660    0.0343   -0.1028 C   0  0  0  0  0  0  0  0  0  0  0  0
   -1.6134    0.7732   -0.5707 O   0  0  0  0  0  0  0  0  0  0  0  0
   -1.1214   -1.1192    0.7840 C   0  0  0  0  0  0  0  0  0  0  0  0
    2.3008    1.3666    0.5816 H   0  0  0  0  0  0  0  0  0  0  0  0
    0.6892    1.9801    0.9636 H   0  0  0  0  0  0  0  0  0  0  0  0
    1.2688    0.4869    1.7114 H   0  0  0  0  0  0  0  0  0  0  0  0
    0.7608    0.8990   -1.2741 H   0  0  0  0  0  0  0  0  0  0  0  0
    1.5408   -1.6082    0.3078 H   0  0  0  0  0  0  0  0  0  0  0  0
    2.5247   -0.7515   -0.8743 H   0  0  0  0  0  0  0  0  0  0  0  0
    1.0715   -1.5985   -1.3986 H   0  0  0  0  0  0  0  0  0  0  0  0
   -0.9604   -2.0445    0.2352 H   0  0  0  0  0  0  0  0  0  0  0  0
   -2.1672   -1.0554    1.0720 H   0  0  0  0  0  0  0  0  0  0  0  0
   -0.4878   -1.1328    1.6654 H   0  0  0  0  0  0  0  0  0  0  0  0
  1  2  1  0  0  0  0
  2  3  1  0  0  0  0
  2  4  1  0  0  0  0
  4  5  2  0  0  0  0
  4  6  1  0  0  0  0
  1  7  1  0  0  0  0
  1  8  1  0  0  0  0
  1  9  1  0  0  0  0
  2 10  1  0  0  0  0
  3 11  1  0  0  0  0
  3 12  1  0  0  0  0
  3 13  1  0  0  0  0
  6 14  1  0  0  0  0
  6 15  1  0  0  0  0
  6 16  1  0  0  0  0
M  END
