 xtb: 6.7.1 (edcfbbe)
          04052518533D

 23 23  0     0  0            999 V2000
   -2.2630   -0.4639   -1.1736 C   0  0  0  0  0  0  0  0  0  0  0  0
   -1.7557   -0.0302    0.1687 C   0  0  0  0  0  0  0  0  0  0  0  0
   -2.5079    0.3386    1.0529 O   0  0  0  0  0  0  0  0  0  0  0  0
   -0.2587   -0.0408    0.3788 C   0  0  0  0  0  0  0  0  0  0  0  0
    0.3047    1.2972   -0.1550 C   0  0  0  0  0  0  0  0  0  0  0  0
    1.7847    1.1657   -0.5311 C   0  0  0  0  0  0  0  0  0  0  0  0
    2.4838    0.1793    0.3974 C   0  0  0  0  0  0  0  0  0  0  0  0
    1.9322   -1.2370    0.1847 C   0  0  0  0  0  0  0  0  0  0  0  0
    0.4706   -1.2098   -0.2815 C   0  0  0  0  0  0  0  0  0  0  0  0
   -1.6682   -0.0311   -1.9717 H   0  0  0  0  0  0  0  0  0  0  0  0
   -2.1804   -1.5468   -1.2398 H   0  0  0  0  0  0  0  0  0  0  0  0
   -3.3068   -0.1829   -1.2833 H   0  0  0  0  0  0  0  0  0  0  0  0
   -0.0912   -0.0845    1.4599 H   0  0  0  0  0  0  0  0  0  0  0  0
   -0.2644    1.6224   -1.0277 H   0  0  0  0  0  0  0  0  0  0  0  0
    0.1767    2.0585    0.6159 H   0  0  0  0  0  0  0  0  0  0  0  0
    1.8837    0.8164   -1.5596 H   0  0  0  0  0  0  0  0  0  0  0  0
    2.2596    2.1454   -0.4684 H   0  0  0  0  0  0  0  0  0  0  0  0
    3.5590    0.1892    0.2160 H   0  0  0  0  0  0  0  0  0  0  0  0
    2.3232    0.4951    1.4297 H   0  0  0  0  0  0  0  0  0  0  0  0
    2.5300   -1.7599   -0.5632 H   0  0  0  0  0  0  0  0  0  0  0  0
    2.0119   -1.7973    1.1176 H   0  0  0  0  0  0  0  0  0  0  0  0
    0.4303   -1.1003   -1.3644 H   0  0  0  0  0  0  0  0  0  0  0  0
   -0.0128   -2.1517   -0.0187 H   0  0  0  0  0  0  0  0  0  0  0  0
  1  2  1  0  0  0  0
  2  3  2  0  0  0  0
  2  4  1  0  0  0  0
  4  5  1  0  0  0  0
  5  6  1  0  0  0  0
  6  7  1  0  0  0  0
  7  8  1  0  0  0  0
  4  9  1  0  0  0  0
  8  9  1  0  0  0  0
  1 10  1  0  0  0  0
  1 11  1  0  0  0  0
  1 12  1  0  0  0  0
  4 13  1  0  0  0  0
  5 14  1  0  0  0  0
  5 15  1  0  0  0  0
  6 16  1  0  0  0  0
  6 17  1  0  0  0  0
  7 18  1  0  0  0  0
  7 19  1  0  0  0  0
  8 20  1  0  0  0  0
  8 21  1  0  0  0  0
  9 22  1  0  0  0  0
  9 23  1  0  0  0  0
M  END
