 xtb: 6.7.1 (edcfbbe)
          04032521093D

 14 14  0     0  0            999 V2000
    2.4364    0.0295    0.0002 C   0  0  0  0  0  0  0  0  0  0  0  0
    0.9419   -0.0064   -0.0002 C   0  0  0  0  0  0  0  0  0  0  0  0
    0.2480   -1.2134   -0.0002 C   0  0  0  0  0  0  0  0  0  0  0  0
   -1.1357   -1.2026    0.0001 C   0  0  0  0  0  0  0  0  0  0  0  0
   -1.7848    0.0230    0.0002 C   0  0  0  0  0  0  0  0  0  0  0  0
   -1.1433    1.1808   -0.0000 N   0  0  0  0  0  0  0  0  0  0  0  0
    0.1804    1.1574   -0.0001 C   0  0  0  0  0  0  0  0  0  0  0  0
    2.7977    1.0539   -0.0082 H   0  0  0  0  0  0  0  0  0  0  0  0
    2.8233   -0.4734    0.8847 H   0  0  0  0  0  0  0  0  0  0  0  0
    2.8245   -0.4886   -0.8749 H   0  0  0  0  0  0  0  0  0  0  0  0
    0.7906   -2.1479    0.0004 H   0  0  0  0  0  0  0  0  0  0  0  0
   -1.7005   -2.1213   -0.0000 H   0  0  0  0  0  0  0  0  0  0  0  0
   -2.8644    0.0885    0.0002 H   0  0  0  0  0  0  0  0  0  0  0  0
    0.6575    2.1294   -0.0003 H   0  0  0  0  0  0  0  0  0  0  0  0
  1  2  1  0  0  0  0
  2  3  4  0  0  0  0
  3  4  4  0  0  0  0
  4  5  4  0  0  0  0
  5  6  4  0  0  0  0
  2  7  4  0  0  0  0
  6  7  4  0  0  0  0
  1  8  1  0  0  0  0
  1  9  1  0  0  0  0
  1 10  1  0  0  0  0
  3 11  1  0  0  0  0
  4 12  1  0  0  0  0
  5 13  1  0  0  0  0
  7 14  1  0  0  0  0
M  END
