 xtb: 6.7.1 (edcfbbe)
          04032521433D

 27 31  0     0  0            999 V2000
    2.8606    0.0005   -0.8209 C   0  0  0  0  0  0  0  0  0  0  0  0
    2.4860   -1.1300    0.1358 C   0  0  0  0  0  0  0  0  0  0  0  0
    2.6044   -2.1474   -0.2214 H   0  0  0  0  0  0  0  0  0  0  0  0
    1.0725   -0.7759    0.6455 C   0  0  0  0  0  0  0  0  0  0  0  0
    0.9598   -1.2022    1.6445 H   0  0  0  0  0  0  0  0  0  0  0  0
    1.0725    0.7759    0.6455 C   0  0  0  0  0  0  0  0  0  0  0  0
    0.9593    1.2022    1.6445 H   0  0  0  0  0  0  0  0  0  0  0  0
    2.4860    1.1304    0.1364 C   0  0  0  0  0  0  0  0  0  0  0  0
    2.6046    2.1480   -0.2201 H   0  0  0  0  0  0  0  0  0  0  0  0
    3.3420    0.7345    1.3515 C   0  0  0  0  0  0  0  0  0  0  0  0
    3.3565    1.3427    2.2432 H   0  0  0  0  0  0  0  0  0  0  0  0
    3.3420   -0.7349    1.3511 C   0  0  0  0  0  0  0  0  0  0  0  0
    3.3566   -1.3437    2.2424 H   0  0  0  0  0  0  0  0  0  0  0  0
    4.5016   -0.0001    1.0761 O   0  0  0  0  0  0  0  0  0  0  0  0
   -0.2443    1.1167   -0.1067 C   0  0  0  0  0  0  0  0  0  0  0  0
   -1.2955    0.6703    0.9150 C   0  0  0  0  0  0  0  0  0  0  0  0
   -1.2956   -0.6698    0.9152 C   0  0  0  0  0  0  0  0  0  0  0  0
   -0.2444   -1.1168   -0.1063 C   0  0  0  0  0  0  0  0  0  0  0  0
   -0.5041   -0.0003   -1.1463 C   0  0  0  0  0  0  0  0  0  0  0  0
   -2.2419   -0.0004   -1.6607 Cl  0  0  0  0  0  0  0  0  0  0  0  0
    0.3355   -0.0006   -2.6797 Cl  0  0  0  0  0  0  0  0  0  0  0  0
   -0.3947   -2.7624   -0.6853 Cl  0  0  0  0  0  0  0  0  0  0  0  0
   -2.1692   -1.7434    1.8856 Cl  0  0  0  0  0  0  0  0  0  0  0  0
   -2.1691    1.7445    1.8848 Cl  0  0  0  0  0  0  0  0  0  0  0  0
   -0.3942    2.7620   -0.6864 Cl  0  0  0  0  0  0  0  0  0  0  0  0
    2.3311    0.0007   -1.7556 H   0  0  0  0  0  0  0  0  0  0  0  0
    3.9309    0.0006   -1.0201 H   0  0  0  0  0  0  0  0  0  0  0  0
  1  2  1  0  0  0  0
  2  3  1  0  0  0  0
  2  4  1  0  0  0  0
  4  5  1  0  0  0  0
  4  6  1  0  0  0  0
  6  7  1  0  0  0  0
  1  8  1  0  0  0  0
  6  8  1  0  0  0  0
  8  9  1  0  0  0  0
  8 10  1  0  0  0  0
 10 11  1  0  0  0  0
  2 12  1  0  0  0  0
 10 12  1  0  0  0  0
 12 13  1  0  0  0  0
 10 14  1  0  0  0  0
 12 14  1  0  0  0  0
  6 15  1  0  0  0  0
 15 16  1  0  0  0  0
 16 17  2  0  0  0  0
  4 18  1  0  0  0  0
 17 18  1  0  0  0  0
 15 19  1  0  0  0  0
 18 19  1  0  0  0  0
 19 20  1  0  0  0  0
 19 21  1  0  0  0  0
 18 22  1  0  0  0  0
 17 23  1  0  0  0  0
 16 24  1  0  0  0  0
 15 25  1  0  0  0  0
  1 26  1  0  0  0  0
  1 27  1  0  0  0  0
M  END
