 xtb: 6.7.1 (edcfbbe)
          04062518003D

 24 24  0     0  0            999 V2000
   -2.1096   -1.3452   -0.1034 C   0  0  0  0  0  0  0  0  0  0  0  0
   -1.0149   -0.5036    0.5740 C   0  0  0  0  0  0  0  0  0  0  0  0
   -1.4204   -0.1165    1.5173 H   0  0  0  0  0  0  0  0  0  0  0  0
   -0.6128    0.6874   -0.3028 C   0  0  0  0  0  0  0  0  0  0  0  0
   -0.4900    0.3534   -1.3476 H   0  0  0  0  0  0  0  0  0  0  0  0
    0.7336    1.2330    0.1943 C   0  0  0  0  0  0  0  0  0  0  0  0
    0.6831    1.4131    1.2738 H   0  0  0  0  0  0  0  0  0  0  0  0
    1.8173    0.1816   -0.0681 C   0  0  0  0  0  0  0  0  0  0  0  0
    2.1476    0.2655   -1.1142 H   0  0  0  0  0  0  0  0  0  0  0  0
    1.2253   -1.2449    0.0894 C   0  0  0  0  0  0  0  0  0  0  0  0
    1.9614   -1.8739    0.6109 H   0  0  0  0  0  0  0  0  0  0  0  0
    0.1083   -1.3019    0.9368 O   0  0  0  0  0  0  0  0  0  0  0  0
    0.9542   -1.7293   -1.1905 O   0  0  0  0  0  0  0  0  0  0  0  0
    2.8777    0.4191    0.8179 O   0  0  0  0  0  0  0  0  0  0  0  0
    1.0057    2.4825   -0.3827 O   0  0  0  0  0  0  0  0  0  0  0  0
   -1.6229    1.6631   -0.2433 O   0  0  0  0  0  0  0  0  0  0  0  0
   -3.3568   -0.6990   -0.0794 O   0  0  0  0  0  0  0  0  0  0  0  0
   -2.2343   -2.2804    0.4475 H   0  0  0  0  0  0  0  0  0  0  0  0
   -1.8122   -1.5729   -1.1370 H   0  0  0  0  0  0  0  0  0  0  0  0
    0.7432   -2.6748   -1.1548 H   0  0  0  0  0  0  0  0  0  0  0  0
    3.6643   -0.0768    0.5485 H   0  0  0  0  0  0  0  0  0  0  0  0
    1.2688    2.3725   -1.3091 H   0  0  0  0  0  0  0  0  0  0  0  0
   -1.2035    2.5382   -0.3050 H   0  0  0  0  0  0  0  0  0  0  0  0
   -3.2353    0.2235   -0.3557 H   0  0  0  0  0  0  0  0  0  0  0  0
  1  2  1  0  0  0  0
  2  3  1  0  0  0  0
  2  4  1  0  0  0  0
  4  5  1  0  0  0  0
  4  6  1  0  0  0  0
  6  7  1  0  0  0  0
  6  8  1  0  0  0  0
  8  9  1  0  0  0  0
  8 10  1  0  0  0  0
 10 11  1  0  0  0  0
  2 12  1  0  0  0  0
 10 12  1  0  0  0  0
 10 13  1  0  0  0  0
  8 14  1  0  0  0  0
  6 15  1  0  0  0  0
  4 16  1  0  0  0  0
  1 17  1  0  0  0  0
  1 18  1  0  0  0  0
  1 19  1  0  0  0  0
 13 20  1  0  0  0  0
 14 21  1  0  0  0  0
 15 22  1  0  0  0  0
 16 23  1  0  0  0  0
 17 24  1  0  0  0  0
M  END
