 xtb: 6.7.1 (edcfbbe)
          04032521463D

 17 17  0     0  0            999 V2000
   -2.5626   -0.9703    0.0005 C   0  0  0  0  0  0  0  0  0  0  0  0
   -1.2349   -0.2829   -0.0007 C   0  0  0  0  0  0  0  0  0  0  0  0
   -1.1513    1.1091   -0.0004 C   0  0  0  0  0  0  0  0  0  0  0  0
    0.0970    1.7000    0.0001 C   0  0  0  0  0  0  0  0  0  0  0  0
    1.2348    1.0195    0.0004 N   0  0  0  0  0  0  0  0  0  0  0  0
    1.1715   -0.3073    0.0001 C   0  0  0  0  0  0  0  0  0  0  0  0
   -0.0428   -0.9906   -0.0004 C   0  0  0  0  0  0  0  0  0  0  0  0
    2.4699   -1.0520    0.0001 C   0  0  0  0  0  0  0  0  0  0  0  0
   -3.1209   -0.7000    0.8952 H   0  0  0  0  0  0  0  0  0  0  0  0
   -3.1468   -0.6566   -0.8627 H   0  0  0  0  0  0  0  0  0  0  0  0
   -2.4420   -2.0495   -0.0270 H   0  0  0  0  0  0  0  0  0  0  0  0
   -2.0446    1.7141   -0.0008 H   0  0  0  0  0  0  0  0  0  0  0  0
    0.2051    2.7771    0.0004 H   0  0  0  0  0  0  0  0  0  0  0  0
   -0.0463   -2.0705   -0.0007 H   0  0  0  0  0  0  0  0  0  0  0  0
    3.2952   -0.3473    0.0086 H   0  0  0  0  0  0  0  0  0  0  0  0
    2.5339   -1.6937    0.8764 H   0  0  0  0  0  0  0  0  0  0  0  0
    2.5411   -1.6797   -0.8859 H   0  0  0  0  0  0  0  0  0  0  0  0
  1  2  1  0  0  0  0
  2  3  4  0  0  0  0
  3  4  4  0  0  0  0
  4  5  4  0  0  0  0
  5  6  4  0  0  0  0
  2  7  4  0  0  0  0
  6  7  4  0  0  0  0
  6  8  1  0  0  0  0
  1  9  1  0  0  0  0
  1 10  1  0  0  0  0
  1 11  1  0  0  0  0
  3 12  1  0  0  0  0
  4 13  1  0  0  0  0
  7 14  1  0  0  0  0
  8 15  1  0  0  0  0
  8 16  1  0  0  0  0
  8 17  1  0  0  0  0
M  END
