 xtb: 6.7.1 (edcfbbe)
          04062518003D

 24 24  0     0  0            999 V2000
   -2.5589   -0.6795   -0.3154 C   0  0  0  0  0  0  0  0  0  0  0  0
   -1.1757   -0.3046    0.2270 C   0  0  0  0  0  0  0  0  0  0  0  0
   -1.2175   -0.2625    1.3267 H   0  0  0  0  0  0  0  0  0  0  0  0
   -0.7053    1.0572   -0.3237 C   0  0  0  0  0  0  0  0  0  0  0  0
   -0.7081    1.0025   -1.4193 H   0  0  0  0  0  0  0  0  0  0  0  0
    0.7280    1.3410    0.1691 C   0  0  0  0  0  0  0  0  0  0  0  0
    0.7329    1.4287    1.2626 H   0  0  0  0  0  0  0  0  0  0  0  0
    1.6386    0.1649   -0.2170 C   0  0  0  0  0  0  0  0  0  0  0  0
    1.7051    0.1055   -1.3164 H   0  0  0  0  0  0  0  0  0  0  0  0
    1.0276   -1.1532    0.3105 C   0  0  0  0  0  0  0  0  0  0  0  0
    1.0387   -1.1240    1.4139 H   0  0  0  0  0  0  0  0  0  0  0  0
   -0.2795   -1.3303   -0.1699 O   0  0  0  0  0  0  0  0  0  0  0  0
    1.7853   -2.2474   -0.0654 O   0  0  0  0  0  0  0  0  0  0  0  0
    2.9117    0.3675    0.3383 O   0  0  0  0  0  0  0  0  0  0  0  0
    1.2055    2.5776   -0.2829 O   0  0  0  0  0  0  0  0  0  0  0  0
   -1.5937    2.0914   -0.0042 O   0  0  0  0  0  0  0  0  0  0  0  0
   -3.1226   -1.7697    0.3639 O   0  0  0  0  0  0  0  0  0  0  0  0
   -2.4667   -0.8902   -1.3875 H   0  0  0  0  0  0  0  0  0  0  0  0
   -3.2351    0.1645   -0.1713 H   0  0  0  0  0  0  0  0  0  0  0  0
    1.5347   -2.5170   -0.9636 H   0  0  0  0  0  0  0  0  0  0  0  0
    3.4255   -0.4512    0.2545 H   0  0  0  0  0  0  0  0  0  0  0  0
    1.2727    2.5797   -1.2487 H   0  0  0  0  0  0  0  0  0  0  0  0
   -1.4765    2.3606    0.9184 H   0  0  0  0  0  0  0  0  0  0  0  0
   -2.5387   -2.5349    0.2593 H   0  0  0  0  0  0  0  0  0  0  0  0
  1  2  1  0  0  0  0
  2  3  1  0  0  0  0
  2  4  1  0  0  0  0
  4  5  1  0  0  0  0
  4  6  1  0  0  0  0
  6  7  1  0  0  0  0
  6  8  1  0  0  0  0
  8  9  1  0  0  0  0
  8 10  1  0  0  0  0
 10 11  1  0  0  0  0
  2 12  1  0  0  0  0
 10 12  1  0  0  0  0
 10 13  1  0  0  0  0
  8 14  1  0  0  0  0
  6 15  1  0  0  0  0
  4 16  1  0  0  0  0
  1 17  1  0  0  0  0
  1 18  1  0  0  0  0
  1 19  1  0  0  0  0
 13 20  1  0  0  0  0
 14 21  1  0  0  0  0
 15 22  1  0  0  0  0
 16 23  1  0  0  0  0
 17 24  1  0  0  0  0
M  END
