 xtb: 6.7.1 (edcfbbe)
          04032521173D

 24 26  0     0  0            999 V2000
    2.6441   -0.0007    2.0395 C   0  0  0  0  0  0  0  0  0  0  0  0
    1.9236    1.2369    1.4985 C   0  0  0  0  0  0  0  0  0  0  0  0
    1.9738    2.0659    2.2024 H   0  0  0  0  0  0  0  0  0  0  0  0
    0.4654    0.7776    1.3207 C   0  0  0  0  0  0  0  0  0  0  0  0
   -0.0765    1.1600    2.1878 H   0  0  0  0  0  0  0  0  0  0  0  0
    0.4650   -0.7778    1.3208 C   0  0  0  0  0  0  0  0  0  0  0  0
   -0.0772   -1.1598    2.1879 H   0  0  0  0  0  0  0  0  0  0  0  0
    1.9229   -1.2380    1.4987 C   0  0  0  0  0  0  0  0  0  0  0  0
    1.9725   -2.0668    2.2029 H   0  0  0  0  0  0  0  0  0  0  0  0
    2.7359   -1.8946    0.0345 Cl  0  0  0  0  0  0  0  0  0  0  0  0
   -0.4055   -1.1199    0.0824 C   0  0  0  0  0  0  0  0  0  0  0  0
   -1.8012   -0.6689    0.5224 C   0  0  0  0  0  0  0  0  0  0  0  0
   -1.8008    0.6701    0.5223 C   0  0  0  0  0  0  0  0  0  0  0  0
   -0.4049    1.1202    0.0823 C   0  0  0  0  0  0  0  0  0  0  0  0
   -0.1417    0.0000   -0.9535 C   0  0  0  0  0  0  0  0  0  0  0  0
    1.3641   -0.0005   -1.8389 Cl  0  0  0  0  0  0  0  0  0  0  0  0
   -1.4077    0.0004   -2.2348 Cl  0  0  0  0  0  0  0  0  0  0  0  0
   -0.3214    2.7668   -0.5127 Cl  0  0  0  0  0  0  0  0  0  0  0  0
   -3.0203    1.7455    0.9765 Cl  0  0  0  0  0  0  0  0  0  0  0  0
   -3.0213   -1.7436    0.9769 Cl  0  0  0  0  0  0  0  0  0  0  0  0
   -0.3232   -2.7666   -0.5125 Cl  0  0  0  0  0  0  0  0  0  0  0  0
    2.7369    1.8928    0.0340 Cl  0  0  0  0  0  0  0  0  0  0  0  0
    2.5577   -0.0005    3.1252 H   0  0  0  0  0  0  0  0  0  0  0  0
    3.6983   -0.0010    1.7757 H   0  0  0  0  0  0  0  0  0  0  0  0
  1  2  1  0  0  0  0
  2  3  1  0  0  0  0
  2  4  1  0  0  0  0
  4  5  1  0  0  0  0
  4  6  1  0  0  0  0
  6  7  1  0  0  0  0
  1  8  1  0  0  0  0
  6  8  1  0  0  0  0
  8  9  1  0  0  0  0
  8 10  1  0  0  0  0
  6 11  1  0  0  0  0
 11 12  1  0  0  0  0
 12 13  2  0  0  0  0
  4 14  1  0  0  0  0
 13 14  1  0  0  0  0
 11 15  1  0  0  0  0
 14 15  1  0  0  0  0
 15 16  1  0  0  0  0
 15 17  1  0  0  0  0
 14 18  1  0  0  0  0
 13 19  1  0  0  0  0
 12 20  1  0  0  0  0
 11 21  1  0  0  0  0
  2 22  1  0  0  0  0
  1 23  1  0  0  0  0
  1 24  1  0  0  0  0
M  END
