 xtb: 6.7.1 (edcfbbe)
          04032521523D

 16 16  0     0  0            999 V2000
    0.7437   -1.1674    0.3230 C   0  0  0  0  0  0  0  0  0  0  0  0
   -0.7870   -1.2222    0.0905 C   0  0  0  0  0  0  0  0  0  0  0  0
   -1.3016    0.0172   -0.4701 N   0  0  0  0  0  0  0  0  0  0  0  0
   -0.7735    1.1546    0.2610 C   0  0  0  0  0  0  0  0  0  0  0  0
    0.7713    1.2283    0.1824 C   0  0  0  0  0  0  0  0  0  0  0  0
    1.2624   -0.0145   -0.3964 N   0  0  0  0  0  0  0  0  0  0  0  0
    1.2245   -2.0643   -0.0691 H   0  0  0  0  0  0  0  0  0  0  0  0
    0.9609   -1.1055    1.4044 H   0  0  0  0  0  0  0  0  0  0  0  0
   -1.0448   -2.0309   -0.5930 H   0  0  0  0  0  0  0  0  0  0  0  0
   -1.3027   -1.3972    1.0395 H   0  0  0  0  0  0  0  0  0  0  0  0
   -0.9849    0.0896   -1.4329 H   0  0  0  0  0  0  0  0  0  0  0  0
   -1.2214    2.0626   -0.1440 H   0  0  0  0  0  0  0  0  0  0  0  0
   -1.0953    1.0494    1.3009 H   0  0  0  0  0  0  0  0  0  0  0  0
    1.0872    2.0430   -0.4730 H   0  0  0  0  0  0  0  0  0  0  0  0
    1.1870    1.4141    1.1886 H   0  0  0  0  0  0  0  0  0  0  0  0
    2.2757   -0.0204   -0.3924 H   0  0  0  0  0  0  0  0  0  0  0  0
  1  2  1  0  0  0  0
  2  3  1  0  0  0  0
  3  4  1  0  0  0  0
  4  5  1  0  0  0  0
  1  6  1  0  0  0  0
  5  6  1  0  0  0  0
  1  7  1  0  0  0  0
  1  8  1  0  0  0  0
  2  9  1  0  0  0  0
  2 10  1  0  0  0  0
  3 11  1  0  0  0  0
  4 12  1  0  0  0  0
  4 13  1  0  0  0  0
  5 14  1  0  0  0  0
  5 15  1  0  0  0  0
  6 16  1  0  0  0  0
M  END
