 xtb: 6.7.1 (edcfbbe)
          04032521483D

 13 13  0     0  0            999 V2000
    2.3937    0.0552   -0.0002 C   0  0  0  0  0  0  0  0  0  0  0  0
    0.9033    0.0147    0.0008 C   0  0  0  0  0  0  0  0  0  0  0  0
    0.1324    1.1816    0.0001 C   0  0  0  0  0  0  0  0  0  0  0  0
   -1.1891    1.1566   -0.0002 N   0  0  0  0  0  0  0  0  0  0  0  0
   -1.7694   -0.0387   -0.0001 C   0  0  0  0  0  0  0  0  0  0  0  0
   -1.0166   -1.2026   -0.0002 C   0  0  0  0  0  0  0  0  0  0  0  0
    0.3093   -1.1756    0.0003 N   0  0  0  0  0  0  0  0  0  0  0  0
    2.7521    0.6167    0.8597 H   0  0  0  0  0  0  0  0  0  0  0  0
    2.7870   -0.9556    0.0345 H   0  0  0  0  0  0  0  0  0  0  0  0
    2.7509    0.5525   -0.8996 H   0  0  0  0  0  0  0  0  0  0  0  0
    0.5913    2.1605    0.0002 H   0  0  0  0  0  0  0  0  0  0  0  0
   -2.8492   -0.0485    0.0002 H   0  0  0  0  0  0  0  0  0  0  0  0
   -1.4735   -2.1819   -0.0009 H   0  0  0  0  0  0  0  0  0  0  0  0
  1  2  1  0  0  0  0
  2  3  4  0  0  0  0
  3  4  4  0  0  0  0
  4  5  4  0  0  0  0
  5  6  4  0  0  0  0
  2  7  4  0  0  0  0
  6  7  4  0  0  0  0
  1  8  1  0  0  0  0
  1  9  1  0  0  0  0
  1 10  1  0  0  0  0
  3 11  1  0  0  0  0
  5 12  1  0  0  0  0
  6 13  1  0  0  0  0
M  END
