 xtb: 6.7.1 (edcfbbe)
          04052516073D

 27 27  0     0  0            999 V2000
   -2.5794    0.9341    0.9751 C   0  0  0  0  0  0  0  0  0  0  0  0
   -1.2325    0.6106    0.3351 C   0  0  0  0  0  0  0  0  0  0  0  0
   -0.4313    0.9776    0.9891 H   0  0  0  0  0  0  0  0  0  0  0  0
   -1.0645    1.2556   -1.0423 C   0  0  0  0  0  0  0  0  0  0  0  0
    0.3630    1.0901   -1.5809 C   0  0  0  0  0  0  0  0  0  0  0  0
    1.0603   -0.1669   -1.0231 C   0  0  0  0  0  0  0  0  0  0  0  0
    1.7714   -0.5235   -1.7781 H   0  0  0  0  0  0  0  0  0  0  0  0
    0.0015   -1.2580   -0.8346 C   0  0  0  0  0  0  0  0  0  0  0  0
   -1.0180   -0.8789    0.2048 C   0  0  0  0  0  0  0  0  0  0  0  0
   -1.6217   -1.7046    0.8648 O   0  0  0  0  0  0  0  0  0  0  0  0
    1.8821    0.0822    0.2334 C   0  0  0  0  0  0  0  0  0  0  0  0
    2.6241    1.1676    0.4014 C   0  0  0  0  0  0  0  0  0  0  0  0
    1.9234   -1.0146    1.2574 C   0  0  0  0  0  0  0  0  0  0  0  0
   -2.6920    0.3819    1.9051 H   0  0  0  0  0  0  0  0  0  0  0  0
   -2.6576    1.9975    1.1823 H   0  0  0  0  0  0  0  0  0  0  0  0
   -3.3908    0.6445    0.3107 H   0  0  0  0  0  0  0  0  0  0  0  0
   -1.7855    0.8007   -1.7247 H   0  0  0  0  0  0  0  0  0  0  0  0
   -1.3105    2.3153   -0.9718 H   0  0  0  0  0  0  0  0  0  0  0  0
    0.3249    1.0243   -2.6687 H   0  0  0  0  0  0  0  0  0  0  0  0
    0.9460    1.9732   -1.3321 H   0  0  0  0  0  0  0  0  0  0  0  0
   -0.5452   -1.3797   -1.7741 H   0  0  0  0  0  0  0  0  0  0  0  0
    0.4308   -2.2295   -0.5905 H   0  0  0  0  0  0  0  0  0  0  0  0
    3.2301    1.2966    1.2819 H   0  0  0  0  0  0  0  0  0  0  0  0
    2.6797    1.9667   -0.3163 H   0  0  0  0  0  0  0  0  0  0  0  0
    2.5701   -0.7345    2.0845 H   0  0  0  0  0  0  0  0  0  0  0  0
    0.9337   -1.2329    1.6556 H   0  0  0  0  0  0  0  0  0  0  0  0
    2.3127   -1.9296    0.8128 H   0  0  0  0  0  0  0  0  0  0  0  0
  1  2  1  0  0  0  0
  2  3  1  0  0  0  0
  2  4  1  0  0  0  0
  4  5  1  0  0  0  0
  5  6  1  0  0  0  0
  6  7  1  0  0  0  0
  6  8  1  0  0  0  0
  2  9  1  0  0  0  0
  8  9  1  0  0  0  0
  9 10  2  0  0  0  0
  6 11  1  0  0  0  0
 11 12  2  0  0  0  0
 11 13  1  0  0  0  0
  1 14  1  0  0  0  0
  1 15  1  0  0  0  0
  1 16  1  0  0  0  0
  4 17  1  0  0  0  0
  4 18  1  0  0  0  0
  5 19  1  0  0  0  0
  5 20  1  0  0  0  0
  8 21  1  0  0  0  0
  8 22  1  0  0  0  0
 12 23  1  0  0  0  0
 12 24  1  0  0  0  0
 13 25  1  0  0  0  0
 13 26  1  0  0  0  0
 13 27  1  0  0  0  0
M  END
