 xtb: 6.7.1 (edcfbbe)
          04062518003D

 24 24  0     0  0            999 V2000
   -2.5624   -0.8884    0.2788 C   0  0  0  0  0  0  0  0  0  0  0  0
   -1.1327   -0.4439    0.6249 C   0  0  0  0  0  0  0  0  0  0  0  0
   -1.0238   -0.3977    1.7200 H   0  0  0  0  0  0  0  0  0  0  0  0
   -0.8317    0.9481    0.0271 C   0  0  0  0  0  0  0  0  0  0  0  0
   -1.0662    0.9164   -1.0435 H   0  0  0  0  0  0  0  0  0  0  0  0
    0.6571    1.2876    0.2295 C   0  0  0  0  0  0  0  0  0  0  0  0
    0.8575    1.3717    1.3068 H   0  0  0  0  0  0  0  0  0  0  0  0
    1.5210    0.1479   -0.3446 C   0  0  0  0  0  0  0  0  0  0  0  0
    1.3237    0.0436   -1.4179 H   0  0  0  0  0  0  0  0  0  0  0  0
    1.1100   -1.1676    0.3585 C   0  0  0  0  0  0  0  0  0  0  0  0
    1.2710   -1.0728    1.4461 H   0  0  0  0  0  0  0  0  0  0  0  0
   -0.2561   -1.4259    0.1004 O   0  0  0  0  0  0  0  0  0  0  0  0
    1.8511   -2.2572   -0.0336 O   0  0  0  0  0  0  0  0  0  0  0  0
    2.8954    0.3969   -0.2492 O   0  0  0  0  0  0  0  0  0  0  0  0
    1.0019    2.5452   -0.2855 O   0  0  0  0  0  0  0  0  0  0  0  0
   -1.6768    1.9319    0.5599 O   0  0  0  0  0  0  0  0  0  0  0  0
   -2.7298   -1.1069   -1.0964 O   0  0  0  0  0  0  0  0  0  0  0  0
   -3.2531   -0.0888    0.5519 H   0  0  0  0  0  0  0  0  0  0  0  0
   -2.8010   -1.7944    0.8479 H   0  0  0  0  0  0  0  0  0  0  0  0
    1.7577   -2.4067   -0.9874 H   0  0  0  0  0  0  0  0  0  0  0  0
    3.1483    0.5617    0.6701 H   0  0  0  0  0  0  0  0  0  0  0  0
    0.8411    2.5739   -1.2390 H   0  0  0  0  0  0  0  0  0  0  0  0
   -1.4041    2.1558    1.4615 H   0  0  0  0  0  0  0  0  0  0  0  0
   -2.1248   -1.8135   -1.3649 H   0  0  0  0  0  0  0  0  0  0  0  0
  1  2  1  0  0  0  0
  2  3  1  0  0  0  0
  2  4  1  0  0  0  0
  4  5  1  0  0  0  0
  4  6  1  0  0  0  0
  6  7  1  0  0  0  0
  6  8  1  0  0  0  0
  8  9  1  0  0  0  0
  8 10  1  0  0  0  0
 10 11  1  0  0  0  0
  2 12  1  0  0  0  0
 10 12  1  0  0  0  0
 10 13  1  0  0  0  0
  8 14  1  0  0  0  0
  6 15  1  0  0  0  0
  4 16  1  0  0  0  0
  1 17  1  0  0  0  0
  1 18  1  0  0  0  0
  1 19  1  0  0  0  0
 13 20  1  0  0  0  0
 14 21  1  0  0  0  0
 15 22  1  0  0  0  0
 16 23  1  0  0  0  0
 17 24  1  0  0  0  0
M  END
