 xtb: 6.7.1 (edcfbbe)
          04052508533D

 22 23  0     0  0            999 V2000
    1.7579    0.0817   -1.5108 C   0  0  0  0  0  0  0  0  0  0  0  0
    3.1347    0.1429   -1.6160 C   0  0  0  0  0  0  0  0  0  0  0  0
    3.9113    0.3181   -0.4809 C   0  0  0  0  0  0  0  0  0  0  0  0
    3.2996    0.4457    0.7617 C   0  0  0  0  0  0  0  0  0  0  0  0
    1.9205    0.3948    0.8666 C   0  0  0  0  0  0  0  0  0  0  0  0
    1.1397    0.2015   -0.2692 C   0  0  0  0  0  0  0  0  0  0  0  0
   -0.3287    0.1522   -0.1358 C   0  0  0  0  0  0  0  0  0  0  0  0
   -0.9896    1.1786    0.5318 C   0  0  0  0  0  0  0  0  0  0  0  0
   -2.3666    1.1678    0.6696 C   0  0  0  0  0  0  0  0  0  0  0  0
   -3.1183    0.1184    0.1453 C   0  0  0  0  0  0  0  0  0  0  0  0
   -2.4667   -0.9226   -0.5121 C   0  0  0  0  0  0  0  0  0  0  0  0
   -1.0806   -0.9055   -0.6528 C   0  0  0  0  0  0  0  0  0  0  0  0
   -0.3140   -2.2418   -1.4222 Cl  0  0  0  0  0  0  0  0  0  0  0  0
   -3.3854   -2.2349   -1.1439 Cl  0  0  0  0  0  0  0  0  0  0  0  0
   -4.8318    0.0966    0.3099 Cl  0  0  0  0  0  0  0  0  0  0  0  0
   -3.1617    2.4550    1.4915 Cl  0  0  0  0  0  0  0  0  0  0  0  0
    4.2598    0.6691    2.1872 Cl  0  0  0  0  0  0  0  0  0  0  0  0
    5.6371    0.3808   -0.6136 Cl  0  0  0  0  0  0  0  0  0  0  0  0
    1.1619   -0.0408   -2.3997 H   0  0  0  0  0  0  0  0  0  0  0  0
    3.6163    0.0547   -2.5756 H   0  0  0  0  0  0  0  0  0  0  0  0
    1.4590    0.4849    1.8360 H   0  0  0  0  0  0  0  0  0  0  0  0
   -0.4225    2.0023    0.9330 H   0  0  0  0  0  0  0  0  0  0  0  0
  1  2  4  0  0  0  0
  2  3  4  0  0  0  0
  3  4  4  0  0  0  0
  4  5  4  0  0  0  0
  1  6  4  0  0  0  0
  5  6  4  0  0  0  0
  6  7  1  0  0  0  0
  7  8  4  0  0  0  0
  8  9  4  0  0  0  0
  9 10  4  0  0  0  0
 10 11  4  0  0  0  0
  7 12  4  0  0  0  0
 11 12  4  0  0  0  0
 12 13  1  0  0  0  0
 11 14  1  0  0  0  0
 10 15  1  0  0  0  0
  9 16  1  0  0  0  0
  4 17  1  0  0  0  0
  3 18  1  0  0  0  0
  1 19  1  0  0  0  0
  2 20  1  0  0  0  0
  5 21  1  0  0  0  0
  8 22  1  0  0  0  0
M  END
