 xtb: 6.7.1 (edcfbbe)
          04062518003D

 24 24  0     0  0            999 V2000
   -2.5606   -0.8705    0.3238 C   0  0  0  0  0  0  0  0  0  0  0  0
   -1.1263   -0.4243    0.6460 C   0  0  0  0  0  0  0  0  0  0  0  0
   -1.0005   -0.3500    1.7376 H   0  0  0  0  0  0  0  0  0  0  0  0
   -0.8196    0.9452    0.0057 C   0  0  0  0  0  0  0  0  0  0  0  0
   -1.0539    0.8782   -1.0636 H   0  0  0  0  0  0  0  0  0  0  0  0
    0.6678    1.2949    0.1930 C   0  0  0  0  0  0  0  0  0  0  0  0
    0.8837    1.4289    1.2608 H   0  0  0  0  0  0  0  0  0  0  0  0
    1.5429    0.1416   -0.3200 C   0  0  0  0  0  0  0  0  0  0  0  0
    1.4069    0.0272   -1.4066 H   0  0  0  0  0  0  0  0  0  0  0  0
    1.1002   -1.1734    0.3470 C   0  0  0  0  0  0  0  0  0  0  0  0
    1.2949   -1.0953    1.4379 H   0  0  0  0  0  0  0  0  0  0  0  0
   -0.2667   -1.4285    0.1361 O   0  0  0  0  0  0  0  0  0  0  0  0
    1.8268   -2.2002   -0.2215 O   0  0  0  0  0  0  0  0  0  0  0  0
    2.8820    0.4225   -0.0117 O   0  0  0  0  0  0  0  0  0  0  0  0
    0.9956    2.5271   -0.3868 O   0  0  0  0  0  0  0  0  0  0  0  0
   -1.6621    1.9468    0.5093 O   0  0  0  0  0  0  0  0  0  0  0  0
   -2.7401   -1.1165   -1.0453 O   0  0  0  0  0  0  0  0  0  0  0  0
   -3.2474   -0.0648    0.5880 H   0  0  0  0  0  0  0  0  0  0  0  0
   -2.7961   -1.7658    0.9117 H   0  0  0  0  0  0  0  0  0  0  0  0
    1.4811   -3.0570    0.0738 H   0  0  0  0  0  0  0  0  0  0  0  0
    3.4348   -0.3144   -0.3133 H   0  0  0  0  0  0  0  0  0  0  0  0
    0.8564    2.4940   -1.3442 H   0  0  0  0  0  0  0  0  0  0  0  0
   -1.3486    2.2423    1.3763 H   0  0  0  0  0  0  0  0  0  0  0  0
   -2.1018   -1.7930   -1.3165 H   0  0  0  0  0  0  0  0  0  0  0  0
  1  2  1  0  0  0  0
  2  3  1  0  0  0  0
  2  4  1  0  0  0  0
  4  5  1  0  0  0  0
  4  6  1  0  0  0  0
  6  7  1  0  0  0  0
  6  8  1  0  0  0  0
  8  9  1  0  0  0  0
  8 10  1  0  0  0  0
 10 11  1  0  0  0  0
  2 12  1  0  0  0  0
 10 12  1  0  0  0  0
 10 13  1  0  0  0  0
  8 14  1  0  0  0  0
  6 15  1  0  0  0  0
  4 16  1  0  0  0  0
  1 17  1  0  0  0  0
  1 18  1  0  0  0  0
  1 19  1  0  0  0  0
 13 20  1  0  0  0  0
 14 21  1  0  0  0  0
 15 22  1  0  0  0  0
 16 23  1  0  0  0  0
 17 24  1  0  0  0  0
M  END
