 xtb: 6.7.1 (edcfbbe)
          04032522133D

 11 10  0     0  0            999 V2000
    1.7436   -0.8622    0.4166 C   0  0  0  0  0  0  0  0  0  0  0  0
    0.9549    0.0298   -0.5425 C   0  0  0  0  0  0  0  0  0  0  0  0
   -0.4661    0.2994   -0.1091 C   0  0  0  0  0  0  0  0  0  0  0  0
   -0.9787    1.3951   -0.1827 O   0  0  0  0  0  0  0  0  0  0  0  0
   -1.1722   -0.7280    0.3509 O   0  0  0  0  0  0  0  0  0  0  0  0
    1.6892   -0.4750    1.4312 H   0  0  0  0  0  0  0  0  0  0  0  0
    1.3874   -1.8890    0.4098 H   0  0  0  0  0  0  0  0  0  0  0  0
    2.7866   -0.8743    0.1136 H   0  0  0  0  0  0  0  0  0  0  0  0
    1.4411    0.9994   -0.6527 H   0  0  0  0  0  0  0  0  0  0  0  0
    0.9097   -0.4322   -1.5323 H   0  0  0  0  0  0  0  0  0  0  0  0
   -0.6748   -1.5665    0.3620 H   0  0  0  0  0  0  0  0  0  0  0  0
  1  2  1  0  0  0  0
  2  3  1  0  0  0  0
  3  4  2  0  0  0  0
  3  5  1  0  0  0  0
  1  6  1  0  0  0  0
  1  7  1  0  0  0  0
  1  8  1  0  0  0  0
  2  9  1  0  0  0  0
  2 10  1  0  0  0  0
  5 11  1  0  0  0  0
M  END
