 xtb: 6.7.1 (edcfbbe)
          04062518003D

 24 24  0     0  0            999 V2000
   -1.9617   -0.6556   -0.7889 C   0  0  0  0  0  0  0  0  0  0  0  0
   -1.1728   -0.1463    0.4283 C   0  0  0  0  0  0  0  0  0  0  0  0
   -1.8673   -0.1132    1.2775 H   0  0  0  0  0  0  0  0  0  0  0  0
   -0.6108    1.2757    0.2549 C   0  0  0  0  0  0  0  0  0  0  0  0
   -1.3434    1.8745   -0.2955 H   0  0  0  0  0  0  0  0  0  0  0  0
    0.7259    1.3048   -0.5203 C   0  0  0  0  0  0  0  0  0  0  0  0
    1.1265    2.3223   -0.4185 H   0  0  0  0  0  0  0  0  0  0  0  0
    1.7064    0.3040    0.1147 C   0  0  0  0  0  0  0  0  0  0  0  0
    2.5835    0.2024   -0.5385 H   0  0  0  0  0  0  0  0  0  0  0  0
    1.0569   -1.0881    0.1995 C   0  0  0  0  0  0  0  0  0  0  0  0
    1.6849   -1.7126    0.8507 H   0  0  0  0  0  0  0  0  0  0  0  0
   -0.1852   -1.0962    0.8463 O   0  0  0  0  0  0  0  0  0  0  0  0
    0.9993   -1.6014   -1.1015 O   0  0  0  0  0  0  0  0  0  0  0  0
    2.0772    0.6734    1.4208 O   0  0  0  0  0  0  0  0  0  0  0  0
    0.5727    1.0871   -1.8984 O   0  0  0  0  0  0  0  0  0  0  0  0
   -0.4622    1.9093    1.5033 O   0  0  0  0  0  0  0  0  0  0  0  0
   -2.8325   -1.7057   -0.4360 O   0  0  0  0  0  0  0  0  0  0  0  0
   -1.2791   -0.9794   -1.5820 H   0  0  0  0  0  0  0  0  0  0  0  0
   -2.5961    0.1437   -1.1750 H   0  0  0  0  0  0  0  0  0  0  0  0
    0.8666   -2.5607   -1.0869 H   0  0  0  0  0  0  0  0  0  0  0  0
    2.7048    1.4100    1.3868 H   0  0  0  0  0  0  0  0  0  0  0  0
    0.5908    0.1332   -2.0771 H   0  0  0  0  0  0  0  0  0  0  0  0
    0.2292    1.4415    2.0043 H   0  0  0  0  0  0  0  0  0  0  0  0
   -2.3344   -2.3706    0.0610 H   0  0  0  0  0  0  0  0  0  0  0  0
  1  2  1  0  0  0  0
  2  3  1  0  0  0  0
  2  4  1  0  0  0  0
  4  5  1  0  0  0  0
  4  6  1  0  0  0  0
  6  7  1  0  0  0  0
  6  8  1  0  0  0  0
  8  9  1  0  0  0  0
  8 10  1  0  0  0  0
 10 11  1  0  0  0  0
  2 12  1  0  0  0  0
 10 12  1  0  0  0  0
 10 13  1  0  0  0  0
  8 14  1  0  0  0  0
  6 15  1  0  0  0  0
  4 16  1  0  0  0  0
  1 17  1  0  0  0  0
  1 18  1  0  0  0  0
  1 19  1  0  0  0  0
 13 20  1  0  0  0  0
 14 21  1  0  0  0  0
 15 22  1  0  0  0  0
 16 23  1  0  0  0  0
 17 24  1  0  0  0  0
M  END
