 xtb: 6.7.1 (edcfbbe)
          04062518003D

 24 24  0     0  0            999 V2000
   -2.3999   -0.8537    0.4438 C   0  0  0  0  0  0  0  0  0  0  0  0
   -0.9360   -0.4208    0.5841 C   0  0  0  0  0  0  0  0  0  0  0  0
   -0.6301   -0.5596    1.6320 H   0  0  0  0  0  0  0  0  0  0  0  0
   -0.7306    1.0596    0.1997 C   0  0  0  0  0  0  0  0  0  0  0  0
   -1.4840    1.3491   -0.5418 H   0  0  0  0  0  0  0  0  0  0  0  0
    0.6689    1.2493   -0.4341 C   0  0  0  0  0  0  0  0  0  0  0  0
    0.9731    2.2878   -0.2642 H   0  0  0  0  0  0  0  0  0  0  0  0
    1.6771    0.3141    0.2585 C   0  0  0  0  0  0  0  0  0  0  0  0
    2.6502    0.4263   -0.2322 H   0  0  0  0  0  0  0  0  0  0  0  0
    1.2343   -1.1568    0.0564 C   0  0  0  0  0  0  0  0  0  0  0  0
    1.4227   -1.7085    1.0016 H   0  0  0  0  0  0  0  0  0  0  0  0
   -0.1439   -1.2603   -0.2442 O   0  0  0  0  0  0  0  0  0  0  0  0
    1.9488   -1.6913   -0.9961 O   0  0  0  0  0  0  0  0  0  0  0  0
    1.7241    0.6589    1.6213 O   0  0  0  0  0  0  0  0  0  0  0  0
    0.6717    1.0742   -1.8237 O   0  0  0  0  0  0  0  0  0  0  0  0
   -0.9227    1.9043    1.3033 O   0  0  0  0  0  0  0  0  0  0  0  0
   -2.8875   -0.7130   -0.8643 O   0  0  0  0  0  0  0  0  0  0  0  0
   -3.0106   -0.2044    1.0735 H   0  0  0  0  0  0  0  0  0  0  0  0
   -2.4985   -1.8917    0.7847 H   0  0  0  0  0  0  0  0  0  0  0  0
    1.6438   -2.5931   -1.1836 H   0  0  0  0  0  0  0  0  0  0  0  0
    2.5823    0.4269    2.0022 H   0  0  0  0  0  0  0  0  0  0  0  0
    0.5162    0.1401   -2.0292 H   0  0  0  0  0  0  0  0  0  0  0  0
   -0.1935    1.7653    1.9292 H   0  0  0  0  0  0  0  0  0  0  0  0
   -2.3765   -1.2924   -1.4472 H   0  0  0  0  0  0  0  0  0  0  0  0
  1  2  1  0  0  0  0
  2  3  1  0  0  0  0
  2  4  1  0  0  0  0
  4  5  1  0  0  0  0
  4  6  1  0  0  0  0
  6  7  1  0  0  0  0
  6  8  1  0  0  0  0
  8  9  1  0  0  0  0
  8 10  1  0  0  0  0
 10 11  1  0  0  0  0
  2 12  1  0  0  0  0
 10 12  1  0  0  0  0
 10 13  1  0  0  0  0
  8 14  1  0  0  0  0
  6 15  1  0  0  0  0
  4 16  1  0  0  0  0
  1 17  1  0  0  0  0
  1 18  1  0  0  0  0
  1 19  1  0  0  0  0
 13 20  1  0  0  0  0
 14 21  1  0  0  0  0
 15 22  1  0  0  0  0
 16 23  1  0  0  0  0
 17 24  1  0  0  0  0
M  END
