 xtb: 6.7.1 (edcfbbe)
          04042520023D

 16 16  0     0  0            999 V2000
   -2.4881   -1.1827   -0.0132 C   0  0  0  0  0  0  0  0  0  0  0  0
   -1.7169    0.1011    0.0016 C   0  0  0  0  0  0  0  0  0  0  0  0
   -2.2672    1.1888    0.0120 O   0  0  0  0  0  0  0  0  0  0  0  0
   -0.2289    0.0058    0.0004 C   0  0  0  0  0  0  0  0  0  0  0  0
    0.5155    1.1861   -0.0064 C   0  0  0  0  0  0  0  0  0  0  0  0
    1.8981    1.1057   -0.0073 C   0  0  0  0  0  0  0  0  0  0  0  0
    2.5573   -0.0422   -0.0007 N   0  0  0  0  0  0  0  0  0  0  0  0
    1.8527   -1.1630    0.0068 C   0  0  0  0  0  0  0  0  0  0  0  0
    0.4668   -1.2024    0.0070 C   0  0  0  0  0  0  0  0  0  0  0  0
   -3.5525   -0.9646   -0.0217 H   0  0  0  0  0  0  0  0  0  0  0  0
   -2.2434   -1.7686    0.8694 H   0  0  0  0  0  0  0  0  0  0  0  0
   -2.2262   -1.7609   -0.8959 H   0  0  0  0  0  0  0  0  0  0  0  0
    0.0037    2.1359   -0.0105 H   0  0  0  0  0  0  0  0  0  0  0  0
    2.5099    1.9970   -0.0118 H   0  0  0  0  0  0  0  0  0  0  0  0
    2.4341   -2.0745    0.0096 H   0  0  0  0  0  0  0  0  0  0  0  0
   -0.0413   -2.1514    0.0139 H   0  0  0  0  0  0  0  0  0  0  0  0
  1  2  1  0  0  0  0
  2  3  2  0  0  0  0
  2  4  1  0  0  0  0
  4  5  4  0  0  0  0
  5  6  4  0  0  0  0
  6  7  4  0  0  0  0
  7  8  4  0  0  0  0
  4  9  4  0  0  0  0
  8  9  4  0  0  0  0
  1 10  1  0  0  0  0
  1 11  1  0  0  0  0
  1 12  1  0  0  0  0
  5 13  1  0  0  0  0
  6 14  1  0  0  0  0
  8 15  1  0  0  0  0
  9 16  1  0  0  0  0
M  END
