 xtb: 6.7.1 (edcfbbe)
          04042519583D

 16 16  0     0  0            999 V2000
    2.4763    0.5826   -1.0486 C   0  0  0  0  0  0  0  0  0  0  0  0
    1.6952   -0.0211    0.0805 C   0  0  0  0  0  0  0  0  0  0  0  0
    2.2416   -0.5893    1.0122 O   0  0  0  0  0  0  0  0  0  0  0  0
    0.2150    0.0426    0.0043 C   0  0  0  0  0  0  0  0  0  0  0  0
   -0.4922    1.1244   -0.5177 C   0  0  0  0  0  0  0  0  0  0  0  0
   -1.8756    1.0737   -0.5263 C   0  0  0  0  0  0  0  0  0  0  0  0
   -2.5022   -0.0515   -0.0105 C   0  0  0  0  0  0  0  0  0  0  0  0
   -1.8427   -1.0857    0.4922 N   0  0  0  0  0  0  0  0  0  0  0  0
   -0.5256   -1.0339    0.5020 C   0  0  0  0  0  0  0  0  0  0  0  0
    3.3066    1.1593   -0.6479 H   0  0  0  0  0  0  0  0  0  0  0  0
    1.8644    1.1906   -1.7033 H   0  0  0  0  0  0  0  0  0  0  0  0
    2.9048   -0.2365   -1.6249 H   0  0  0  0  0  0  0  0  0  0  0  0
    0.0221    2.0023   -0.8775 H   0  0  0  0  0  0  0  0  0  0  0  0
   -2.4575    1.8927   -0.9159 H   0  0  0  0  0  0  0  0  0  0  0  0
   -3.5796   -0.1348    0.0123 H   0  0  0  0  0  0  0  0  0  0  0  0
   -0.0112   -1.8902    0.9181 H   0  0  0  0  0  0  0  0  0  0  0  0
  1  2  1  0  0  0  0
  2  3  2  0  0  0  0
  2  4  1  0  0  0  0
  4  5  4  0  0  0  0
  5  6  4  0  0  0  0
  6  7  4  0  0  0  0
  7  8  4  0  0  0  0
  4  9  4  0  0  0  0
  8  9  4  0  0  0  0
  1 10  1  0  0  0  0
  1 11  1  0  0  0  0
  1 12  1  0  0  0  0
  5 13  1  0  0  0  0
  6 14  1  0  0  0  0
  7 15  1  0  0  0  0
  9 16  1  0  0  0  0
M  END
