 xtb: 6.7.1 (edcfbbe)
          04062518003D

 24 24  0     0  0            999 V2000
   -2.1007   -1.1724   -0.2361 C   0  0  0  0  0  0  0  0  0  0  0  0
   -1.2694   -0.3326    0.7532 C   0  0  0  0  0  0  0  0  0  0  0  0
   -1.8788   -0.1627    1.6465 H   0  0  0  0  0  0  0  0  0  0  0  0
   -0.9145    1.0461    0.1674 C   0  0  0  0  0  0  0  0  0  0  0  0
   -1.1970    1.0756   -0.8968 H   0  0  0  0  0  0  0  0  0  0  0  0
    0.5971    1.2839    0.2452 C   0  0  0  0  0  0  0  0  0  0  0  0
    0.9022    1.3554    1.3011 H   0  0  0  0  0  0  0  0  0  0  0  0
    1.3044    0.0872   -0.3964 C   0  0  0  0  0  0  0  0  0  0  0  0
    0.9136   -0.0427   -1.4148 H   0  0  0  0  0  0  0  0  0  0  0  0
    0.9859   -1.1733    0.4304 C   0  0  0  0  0  0  0  0  0  0  0  0
    1.8145   -1.3467    1.1327 H   0  0  0  0  0  0  0  0  0  0  0  0
   -0.1343   -1.0287    1.2632 O   0  0  0  0  0  0  0  0  0  0  0  0
    0.8524   -2.2532   -0.4514 O   0  0  0  0  0  0  0  0  0  0  0  0
    2.6828    0.3600   -0.4207 O   0  0  0  0  0  0  0  0  0  0  0  0
    0.8843    2.4814   -0.4291 O   0  0  0  0  0  0  0  0  0  0  0  0
   -1.6312    2.0208    0.8826 O   0  0  0  0  0  0  0  0  0  0  0  0
   -1.5390   -1.2786   -1.5203 O   0  0  0  0  0  0  0  0  0  0  0  0
   -3.0638   -0.6762   -0.3691 H   0  0  0  0  0  0  0  0  0  0  0  0
   -2.2662   -2.1639    0.2019 H   0  0  0  0  0  0  0  0  0  0  0  0
    0.8066   -3.0865    0.0431 H   0  0  0  0  0  0  0  0  0  0  0  0
    3.1391   -0.2828   -0.9818 H   0  0  0  0  0  0  0  0  0  0  0  0
    1.8459    2.5469   -0.5339 H   0  0  0  0  0  0  0  0  0  0  0  0
   -1.3580    2.8944    0.5636 H   0  0  0  0  0  0  0  0  0  0  0  0
   -0.7077   -1.7860   -1.4518 H   0  0  0  0  0  0  0  0  0  0  0  0
  1  2  1  0  0  0  0
  2  3  1  0  0  0  0
  2  4  1  0  0  0  0
  4  5  1  0  0  0  0
  4  6  1  0  0  0  0
  6  7  1  0  0  0  0
  6  8  1  0  0  0  0
  8  9  1  0  0  0  0
  8 10  1  0  0  0  0
 10 11  1  0  0  0  0
  2 12  1  0  0  0  0
 10 12  1  0  0  0  0
 10 13  1  0  0  0  0
  8 14  1  0  0  0  0
  6 15  1  0  0  0  0
  4 16  1  0  0  0  0
  1 17  1  0  0  0  0
  1 18  1  0  0  0  0
  1 19  1  0  0  0  0
 13 20  1  0  0  0  0
 14 21  1  0  0  0  0
 15 22  1  0  0  0  0
 16 23  1  0  0  0  0
 17 24  1  0  0  0  0
M  END
