 xtb: 6.7.1 (edcfbbe)
          04032521093D

  6  5  0     0  0            999 V2000
    0.6690    0.0000    0.0009 C   0  0  0  0  0  0  0  0  0  0  0  0
   -0.6690    0.0000    0.0007 C   0  0  0  0  0  0  0  0  0  0  0  0
   -1.5769    1.4518   -0.0000 Cl  0  0  0  0  0  0  0  0  0  0  0  0
   -1.5769   -1.4518   -0.0002 Cl  0  0  0  0  0  0  0  0  0  0  0  0
    1.5769   -1.4518   -0.0001 Cl  0  0  0  0  0  0  0  0  0  0  0  0
    1.5770    1.4518   -0.0002 Cl  0  0  0  0  0  0  0  0  0  0  0  0
  1  2  2  0  0  0  0
  2  3  1  0  0  0  0
  2  4  1  0  0  0  0
  1  5  1  0  0  0  0
  1  6  1  0  0  0  0
M  END
