 xtb: 6.7.1 (edcfbbe)
          04062508313D

 24 24  0     0  0            999 V2000
   -3.4560   -0.5067   -0.2806 C   0  0  0  0  0  0  0  0  0  0  0  0
   -2.2125    0.0529   -0.7130 O   0  0  0  0  0  0  0  0  0  0  0  0
   -1.2027    0.0467    0.1519 C   0  0  0  0  0  0  0  0  0  0  0  0
   -1.3011   -0.3937    1.2778 O   0  0  0  0  0  0  0  0  0  0  0  0
    0.0564    0.6054   -0.4690 C   0  0  0  0  0  0  0  0  0  0  0  0
    0.8131   -0.5745   -1.1191 C   0  0  0  0  0  0  0  0  0  0  0  0
    1.7073   -1.2486   -0.0862 C   0  0  0  0  0  0  0  0  0  0  0  0
    2.8435   -0.3058    0.3305 C   0  0  0  0  0  0  0  0  0  0  0  0
    2.4056    1.1619    0.2582 C   0  0  0  0  0  0  0  0  0  0  0  0
    0.9242    1.2996    0.5902 C   0  0  0  0  0  0  0  0  0  0  0  0
   -3.8040    0.0085    0.6154 H   0  0  0  0  0  0  0  0  0  0  0  0
   -3.3293   -1.5659   -0.0539 H   0  0  0  0  0  0  0  0  0  0  0  0
   -4.1444   -0.3638   -1.1072 H   0  0  0  0  0  0  0  0  0  0  0  0
   -0.2499    1.3014   -1.2532 H   0  0  0  0  0  0  0  0  0  0  0  0
    0.0962   -1.2862   -1.5332 H   0  0  0  0  0  0  0  0  0  0  0  0
    1.4227   -0.2007   -1.9416 H   0  0  0  0  0  0  0  0  0  0  0  0
    1.0984   -1.5122    0.7811 H   0  0  0  0  0  0  0  0  0  0  0  0
    2.1196   -2.1728   -0.4925 H   0  0  0  0  0  0  0  0  0  0  0  0
    3.1537   -0.5500    1.3472 H   0  0  0  0  0  0  0  0  0  0  0  0
    3.7059   -0.4541   -0.3211 H   0  0  0  0  0  0  0  0  0  0  0  0
    2.9944    1.7578    0.9560 H   0  0  0  0  0  0  0  0  0  0  0  0
    2.5815    1.5591   -0.7426 H   0  0  0  0  0  0  0  0  0  0  0  0
    0.7259    0.8409    1.5616 H   0  0  0  0  0  0  0  0  0  0  0  0
    0.6476    2.3524    0.6574 H   0  0  0  0  0  0  0  0  0  0  0  0
  1  2  1  0  0  0  0
  2  3  1  0  0  0  0
  3  4  2  0  0  0  0
  3  5  1  0  0  0  0
  5  6  1  0  0  0  0
  6  7  1  0  0  0  0
  7  8  1  0  0  0  0
  8  9  1  0  0  0  0
  5 10  1  0  0  0  0
  9 10  1  0  0  0  0
  1 11  1  0  0  0  0
  1 12  1  0  0  0  0
  1 13  1  0  0  0  0
  5 14  1  0  0  0  0
  6 15  1  0  0  0  0
  6 16  1  0  0  0  0
  7 17  1  0  0  0  0
  7 18  1  0  0  0  0
  8 19  1  0  0  0  0
  8 20  1  0  0  0  0
  9 21  1  0  0  0  0
  9 22  1  0  0  0  0
 10 23  1  0  0  0  0
 10 24  1  0  0  0  0
M  END
