 xtb: 6.7.1 (edcfbbe)
          04032521233D

 14 14  0     0  0            999 V2000
    0.7397   -1.1047   -0.3464 C   0  0  0  0  0  0  0  0  0  0  0  0
   -0.7710   -1.2187   -0.0604 C   0  0  0  0  0  0  0  0  0  0  0  0
   -1.2977    0.0245    0.3771 O   0  0  0  0  0  0  0  0  0  0  0  0
   -0.7359    1.1125   -0.3292 C   0  0  0  0  0  0  0  0  0  0  0  0
    0.7715    1.2197   -0.0238 C   0  0  0  0  0  0  0  0  0  0  0  0
    1.2934   -0.0333    0.3910 O   0  0  0  0  0  0  0  0  0  0  0  0
    0.9228   -0.9470   -1.4185 H   0  0  0  0  0  0  0  0  0  0  0  0
    1.2687   -1.9985   -0.0188 H   0  0  0  0  0  0  0  0  0  0  0  0
   -1.3044   -1.5502   -0.9629 H   0  0  0  0  0  0  0  0  0  0  0  0
   -0.9696   -1.9128    0.7565 H   0  0  0  0  0  0  0  0  0  0  0  0
   -0.9070    0.9795   -1.4066 H   0  0  0  0  0  0  0  0  0  0  0  0
   -1.2686    1.9986    0.0131 H   0  0  0  0  0  0  0  0  0  0  0  0
    1.3150    1.5716   -0.9124 H   0  0  0  0  0  0  0  0  0  0  0  0
    0.9610    1.8947    0.8111 H   0  0  0  0  0  0  0  0  0  0  0  0
  1  2  1  0  0  0  0
  2  3  1  0  0  0  0
  3  4  1  0  0  0  0
  4  5  1  0  0  0  0
  1  6  1  0  0  0  0
  5  6  1  0  0  0  0
  1  7  1  0  0  0  0
  1  8  1  0  0  0  0
  2  9  1  0  0  0  0
  2 10  1  0  0  0  0
  4 11  1  0  0  0  0
  4 12  1  0  0  0  0
  5 13  1  0  0  0  0
  5 14  1  0  0  0  0
M  END
