 xtb: 6.7.1 (edcfbbe)
          04062518003D

 24 24  0     0  0            999 V2000
   -2.4831   -0.4198   -0.3014 C   0  0  0  0  0  0  0  0  0  0  0  0
   -1.0758   -0.1871    0.2587 C   0  0  0  0  0  0  0  0  0  0  0  0
   -1.0834   -0.3735    1.3453 H   0  0  0  0  0  0  0  0  0  0  0  0
   -0.6139    1.2685    0.0320 C   0  0  0  0  0  0  0  0  0  0  0  0
   -1.2442    1.7306   -0.7371 H   0  0  0  0  0  0  0  0  0  0  0  0
    0.8381    1.3001   -0.4922 C   0  0  0  0  0  0  0  0  0  0  0  0
    1.2531    2.3051   -0.3046 H   0  0  0  0  0  0  0  0  0  0  0  0
    1.6825    0.2950    0.3063 C   0  0  0  0  0  0  0  0  0  0  0  0
    2.7005    0.2411   -0.0972 H   0  0  0  0  0  0  0  0  0  0  0  0
    1.0859   -1.1278    0.1646 C   0  0  0  0  0  0  0  0  0  0  0  0
    1.0621   -1.5858    1.1783 H   0  0  0  0  0  0  0  0  0  0  0  0
   -0.2207   -1.1255   -0.3650 O   0  0  0  0  0  0  0  0  0  0  0  0
    1.8950   -1.8478   -0.6926 O   0  0  0  0  0  0  0  0  0  0  0  0
    1.8141    0.6927    1.6453 O   0  0  0  0  0  0  0  0  0  0  0  0
    0.7943    1.0364   -1.8678 O   0  0  0  0  0  0  0  0  0  0  0  0
   -0.7310    1.9354    1.2676 O   0  0  0  0  0  0  0  0  0  0  0  0
   -3.0021   -1.6740    0.0523 O   0  0  0  0  0  0  0  0  0  0  0  0
   -2.4415   -0.3051   -1.3917 H   0  0  0  0  0  0  0  0  0  0  0  0
   -3.1623    0.3217    0.1221 H   0  0  0  0  0  0  0  0  0  0  0  0
    1.4489   -2.6679   -0.9554 H   0  0  0  0  0  0  0  0  0  0  0  0
    0.9633    1.0438    1.9648 H   0  0  0  0  0  0  0  0  0  0  0  0
    1.6898    0.9048   -2.2101 H   0  0  0  0  0  0  0  0  0  0  0  0
   -0.7493    2.8941    1.1339 H   0  0  0  0  0  0  0  0  0  0  0  0
   -2.4164   -2.3588   -0.3009 H   0  0  0  0  0  0  0  0  0  0  0  0
  1  2  1  0  0  0  0
  2  3  1  0  0  0  0
  2  4  1  0  0  0  0
  4  5  1  0  0  0  0
  4  6  1  0  0  0  0
  6  7  1  0  0  0  0
  6  8  1  0  0  0  0
  8  9  1  0  0  0  0
  8 10  1  0  0  0  0
 10 11  1  0  0  0  0
  2 12  1  0  0  0  0
 10 12  1  0  0  0  0
 10 13  1  0  0  0  0
  8 14  1  0  0  0  0
  6 15  1  0  0  0  0
  4 16  1  0  0  0  0
  1 17  1  0  0  0  0
  1 18  1  0  0  0  0
  1 19  1  0  0  0  0
 13 20  1  0  0  0  0
 14 21  1  0  0  0  0
 15 22  1  0  0  0  0
 16 23  1  0  0  0  0
 17 24  1  0  0  0  0
M  END
