 xtb: 6.7.1 (edcfbbe)
          04062518003D

 24 24  0     0  0            999 V2000
   -2.1080   -1.0421   -0.1909 C   0  0  0  0  0  0  0  0  0  0  0  0
   -1.1098   -0.4215    0.8035 C   0  0  0  0  0  0  0  0  0  0  0  0
   -1.5998   -0.4441    1.7848 H   0  0  0  0  0  0  0  0  0  0  0  0
   -0.7724    1.0553    0.5120 C   0  0  0  0  0  0  0  0  0  0  0  0
   -1.6577    1.5266    0.0710 H   0  0  0  0  0  0  0  0  0  0  0  0
    0.4383    1.2656   -0.4264 C   0  0  0  0  0  0  0  0  0  0  0  0
    0.7636    2.3086   -0.2624 H   0  0  0  0  0  0  0  0  0  0  0  0
    1.5944    0.3335   -0.0210 C   0  0  0  0  0  0  0  0  0  0  0  0
    2.3457    0.3497   -0.8196 H   0  0  0  0  0  0  0  0  0  0  0  0
    1.0962   -1.1216    0.0912 C   0  0  0  0  0  0  0  0  0  0  0  0
    1.8925   -1.7308    0.5369 H   0  0  0  0  0  0  0  0  0  0  0  0
    0.0418   -1.2342    1.0143 O   0  0  0  0  0  0  0  0  0  0  0  0
    0.8159   -1.6796   -1.1445 O   0  0  0  0  0  0  0  0  0  0  0  0
    2.1360    0.7005    1.2261 O   0  0  0  0  0  0  0  0  0  0  0  0
    0.1886    1.0486   -1.7879 O   0  0  0  0  0  0  0  0  0  0  0  0
   -0.5389    1.7487    1.7173 O   0  0  0  0  0  0  0  0  0  0  0  0
   -1.7912   -0.7149   -1.5260 O   0  0  0  0  0  0  0  0  0  0  0  0
   -3.1062   -0.6625    0.0595 H   0  0  0  0  0  0  0  0  0  0  0  0
   -2.0835   -2.1270   -0.0361 H   0  0  0  0  0  0  0  0  0  0  0  0
    0.1218   -1.1481   -1.5908 H   0  0  0  0  0  0  0  0  0  0  0  0
    2.7754    1.4178    1.1088 H   0  0  0  0  0  0  0  0  0  0  0  0
   -0.5738    1.5706   -2.0747 H   0  0  0  0  0  0  0  0  0  0  0  0
    0.2564    1.3752    2.1328 H   0  0  0  0  0  0  0  0  0  0  0  0
   -2.3970   -1.1809   -2.1189 H   0  0  0  0  0  0  0  0  0  0  0  0
  1  2  1  0  0  0  0
  2  3  1  0  0  0  0
  2  4  1  0  0  0  0
  4  5  1  0  0  0  0
  4  6  1  0  0  0  0
  6  7  1  0  0  0  0
  6  8  1  0  0  0  0
  8  9  1  0  0  0  0
  8 10  1  0  0  0  0
 10 11  1  0  0  0  0
  2 12  1  0  0  0  0
 10 12  1  0  0  0  0
 10 13  1  0  0  0  0
  8 14  1  0  0  0  0
  6 15  1  0  0  0  0
  4 16  1  0  0  0  0
  1 17  1  0  0  0  0
  1 18  1  0  0  0  0
  1 19  1  0  0  0  0
 13 20  1  0  0  0  0
 14 21  1  0  0  0  0
 15 22  1  0  0  0  0
 16 23  1  0  0  0  0
 17 24  1  0  0  0  0
M  END
