 xtb: 6.7.1 (edcfbbe)
          04032520533D

 19 19  0     0  0            999 V2000
   -3.0830    0.4063    0.0002 C   0  0  0  0  0  0  0  0  0  0  0  0
   -1.6252    0.0548   -0.0002 C   0  0  0  0  0  0  0  0  0  0  0  0
   -1.1975   -1.2626   -0.0002 C   0  0  0  0  0  0  0  0  0  0  0  0
    0.1534   -1.5680   -0.0000 C   0  0  0  0  0  0  0  0  0  0  0  0
    1.1000   -0.5557    0.0001 C   0  0  0  0  0  0  0  0  0  0  0  0
    0.6913    0.7837    0.0001 C   0  0  0  0  0  0  0  0  0  0  0  0
   -0.6634    1.0605   -0.0001 C   0  0  0  0  0  0  0  0  0  0  0  0
    1.7252    1.8669   -0.0001 C   0  0  0  0  0  0  0  0  0  0  0  0
    2.4414   -0.8140    0.0001 O   0  0  0  0  0  0  0  0  0  0  0  0
   -3.3309    0.9915    0.8843 H   0  0  0  0  0  0  0  0  0  0  0  0
   -3.3284    1.0052   -0.8754 H   0  0  0  0  0  0  0  0  0  0  0  0
   -3.6971   -0.4901   -0.0075 H   0  0  0  0  0  0  0  0  0  0  0  0
   -1.9206   -2.0649   -0.0003 H   0  0  0  0  0  0  0  0  0  0  0  0
    0.4707   -2.6015   -0.0000 H   0  0  0  0  0  0  0  0  0  0  0  0
   -0.9835    2.0929   -0.0000 H   0  0  0  0  0  0  0  0  0  0  0  0
    2.3667    1.7694    0.8746 H   0  0  0  0  0  0  0  0  0  0  0  0
    2.3614    1.7742   -0.8792 H   0  0  0  0  0  0  0  0  0  0  0  0
    1.2592    2.8478    0.0039 H   0  0  0  0  0  0  0  0  0  0  0  0
    2.5972   -1.7695    0.0002 H   0  0  0  0  0  0  0  0  0  0  0  0
  1  2  1  0  0  0  0
  2  3  4  0  0  0  0
  3  4  4  0  0  0  0
  4  5  4  0  0  0  0
  5  6  4  0  0  0  0
  2  7  4  0  0  0  0
  6  7  4  0  0  0  0
  6  8  1  0  0  0  0
  5  9  1  0  0  0  0
  1 10  1  0  0  0  0
  1 11  1  0  0  0  0
  1 12  1  0  0  0  0
  3 13  1  0  0  0  0
  4 14  1  0  0  0  0
  7 15  1  0  0  0  0
  8 16  1  0  0  0  0
  8 17  1  0  0  0  0
  8 18  1  0  0  0  0
  9 19  1  0  0  0  0
M  END
