 xtb: 6.7.1 (edcfbbe)
          04032520553D

 16 16  0     0  0            999 V2000
    2.0573    0.0256   -0.3562 C   0  0  0  0  0  0  0  0  0  0  0  0
    0.7640    0.1032    0.4493 C   0  0  0  0  0  0  0  0  0  0  0  0
    1.0086    0.1827    1.5173 H   0  0  0  0  0  0  0  0  0  0  0  0
   -0.1500    1.2598    0.0039 C   0  0  0  0  0  0  0  0  0  0  0  0
   -1.5426    0.6306   -0.0010 C   0  0  0  0  0  0  0  0  0  0  0  0
   -1.2120   -0.8148   -0.3647 C   0  0  0  0  0  0  0  0  0  0  0  0
    0.0032   -1.1048    0.3064 O   0  0  0  0  0  0  0  0  0  0  0  0
    2.6324    0.9361   -0.2156 H   0  0  0  0  0  0  0  0  0  0  0  0
    2.6465   -0.8253   -0.0256 H   0  0  0  0  0  0  0  0  0  0  0  0
    1.8331   -0.0987   -1.4129 H   0  0  0  0  0  0  0  0  0  0  0  0
   -0.0749    2.1129    0.6730 H   0  0  0  0  0  0  0  0  0  0  0  0
    0.1239    1.5759   -1.0030 H   0  0  0  0  0  0  0  0  0  0  0  0
   -1.9840    0.6697    0.9949 H   0  0  0  0  0  0  0  0  0  0  0  0
   -2.2185    1.0935   -0.7144 H   0  0  0  0  0  0  0  0  0  0  0  0
   -1.9524   -1.5402   -0.0255 H   0  0  0  0  0  0  0  0  0  0  0  0
   -1.0740   -0.9219   -1.4502 H   0  0  0  0  0  0  0  0  0  0  0  0
  1  2  1  0  0  0  0
  2  3  1  0  0  0  0
  2  4  1  0  0  0  0
  4  5  1  0  0  0  0
  5  6  1  0  0  0  0
  2  7  1  0  0  0  0
  6  7  1  0  0  0  0
  1  8  1  0  0  0  0
  1  9  1  0  0  0  0
  1 10  1  0  0  0  0
  4 11  1  0  0  0  0
  4 12  1  0  0  0  0
  5 13  1  0  0  0  0
  5 14  1  0  0  0  0
  6 15  1  0  0  0  0
  6 16  1  0  0  0  0
M  END
