 xtb: 6.7.1 (edcfbbe)
          04062508313D

 24 24  0     0  0            999 V2000
   -3.4196   -0.0112    0.1723 C   0  0  0  0  0  0  0  0  0  0  0  0
   -2.2125    0.2115   -0.5627 O   0  0  0  0  0  0  0  0  0  0  0  0
   -1.0484   -0.0718    0.0194 C   0  0  0  0  0  0  0  0  0  0  0  0
   -0.9662   -0.5105    1.1467 O   0  0  0  0  0  0  0  0  0  0  0  0
    0.0956    0.2521   -0.9140 C   0  0  0  0  0  0  0  0  0  0  0  0
    1.0112   -0.9606   -1.1352 C   0  0  0  0  0  0  0  0  0  0  0  0
    1.8305   -1.2995    0.1061 C   0  0  0  0  0  0  0  0  0  0  0  0
    2.6472   -0.0912    0.5521 C   0  0  0  0  0  0  0  0  0  0  0  0
    1.7150    1.0764    0.8587 C   0  0  0  0  0  0  0  0  0  0  0  0
    0.9037    1.4457   -0.3787 C   0  0  0  0  0  0  0  0  0  0  0  0
   -3.8054   -1.0017   -0.0677 H   0  0  0  0  0  0  0  0  0  0  0  0
   -4.1182    0.7575   -0.1461 H   0  0  0  0  0  0  0  0  0  0  0  0
   -3.2208    0.0552    1.2425 H   0  0  0  0  0  0  0  0  0  0  0  0
   -0.3638    0.5346   -1.8663 H   0  0  0  0  0  0  0  0  0  0  0  0
    0.4097   -1.8222   -1.4322 H   0  0  0  0  0  0  0  0  0  0  0  0
    1.6877   -0.7203   -1.9577 H   0  0  0  0  0  0  0  0  0  0  0  0
    1.1591   -1.5971    0.9134 H   0  0  0  0  0  0  0  0  0  0  0  0
    2.4898   -2.1407   -0.1143 H   0  0  0  0  0  0  0  0  0  0  0  0
    3.2295   -0.3442    1.4393 H   0  0  0  0  0  0  0  0  0  0  0  0
    3.3427    0.1942   -0.2405 H   0  0  0  0  0  0  0  0  0  0  0  0
    1.0387    0.7920    1.6672 H   0  0  0  0  0  0  0  0  0  0  0  0
    2.2904    1.9437    1.1872 H   0  0  0  0  0  0  0  0  0  0  0  0
    0.2269    2.2726   -0.1530 H   0  0  0  0  0  0  0  0  0  0  0  0
    1.5824    1.7699   -1.1699 H   0  0  0  0  0  0  0  0  0  0  0  0
  1  2  1  0  0  0  0
  2  3  1  0  0  0  0
  3  4  2  0  0  0  0
  3  5  1  0  0  0  0
  5  6  1  0  0  0  0
  6  7  1  0  0  0  0
  7  8  1  0  0  0  0
  8  9  1  0  0  0  0
  5 10  1  0  0  0  0
  9 10  1  0  0  0  0
  1 11  1  0  0  0  0
  1 12  1  0  0  0  0
  1 13  1  0  0  0  0
  5 14  1  0  0  0  0
  6 15  1  0  0  0  0
  6 16  1  0  0  0  0
  7 17  1  0  0  0  0
  7 18  1  0  0  0  0
  8 19  1  0  0  0  0
  8 20  1  0  0  0  0
  9 21  1  0  0  0  0
  9 22  1  0  0  0  0
 10 23  1  0  0  0  0
 10 24  1  0  0  0  0
M  END
