 xtb: 6.7.1 (edcfbbe)
          04062518003D

 24 24  0     0  0            999 V2000
   -1.7378   -1.3630   -0.5017 C   0  0  0  0  0  0  0  0  0  0  0  0
   -1.1396   -0.4817    0.6135 C   0  0  0  0  0  0  0  0  0  0  0  0
   -1.8549   -0.3989    1.4397 H   0  0  0  0  0  0  0  0  0  0  0  0
   -0.8518    0.9497    0.1215 C   0  0  0  0  0  0  0  0  0  0  0  0
   -1.1667    1.0334   -0.9318 H   0  0  0  0  0  0  0  0  0  0  0  0
    0.6514    1.2656    0.2103 C   0  0  0  0  0  0  0  0  0  0  0  0
    0.9374    1.3677    1.2633 H   0  0  0  0  0  0  0  0  0  0  0  0
    1.4270    0.0985   -0.4063 C   0  0  0  0  0  0  0  0  0  0  0  0
    1.0462   -0.0890   -1.4225 H   0  0  0  0  0  0  0  0  0  0  0  0
    1.1693   -1.1632    0.4440 C   0  0  0  0  0  0  0  0  0  0  0  0
    1.9700   -1.2418    1.1959 H   0  0  0  0  0  0  0  0  0  0  0  0
   -0.0057   -1.0941    1.2125 O   0  0  0  0  0  0  0  0  0  0  0  0
    1.1828   -2.2617   -0.4167 O   0  0  0  0  0  0  0  0  0  0  0  0
    2.7920    0.4193   -0.4435 O   0  0  0  0  0  0  0  0  0  0  0  0
    0.9361    2.5057   -0.3798 O   0  0  0  0  0  0  0  0  0  0  0  0
   -1.6039    1.8460    0.9047 O   0  0  0  0  0  0  0  0  0  0  0  0
   -2.8428   -0.7665   -1.1281 O   0  0  0  0  0  0  0  0  0  0  0  0
   -2.0011   -2.3372   -0.0723 H   0  0  0  0  0  0  0  0  0  0  0  0
   -0.9954   -1.5210   -1.2872 H   0  0  0  0  0  0  0  0  0  0  0  0
    1.1418   -3.0873    0.0894 H   0  0  0  0  0  0  0  0  0  0  0  0
    3.2770   -0.2689   -0.9216 H   0  0  0  0  0  0  0  0  0  0  0  0
    0.9613    2.4172   -1.3436 H   0  0  0  0  0  0  0  0  0  0  0  0
   -1.2978    2.7476    0.7214 H   0  0  0  0  0  0  0  0  0  0  0  0
   -3.5560   -0.6469   -0.4851 H   0  0  0  0  0  0  0  0  0  0  0  0
  1  2  1  0  0  0  0
  2  3  1  0  0  0  0
  2  4  1  0  0  0  0
  4  5  1  0  0  0  0
  4  6  1  0  0  0  0
  6  7  1  0  0  0  0
  6  8  1  0  0  0  0
  8  9  1  0  0  0  0
  8 10  1  0  0  0  0
 10 11  1  0  0  0  0
  2 12  1  0  0  0  0
 10 12  1  0  0  0  0
 10 13  1  0  0  0  0
  8 14  1  0  0  0  0
  6 15  1  0  0  0  0
  4 16  1  0  0  0  0
  1 17  1  0  0  0  0
  1 18  1  0  0  0  0
  1 19  1  0  0  0  0
 13 20  1  0  0  0  0
 14 21  1  0  0  0  0
 15 22  1  0  0  0  0
 16 23  1  0  0  0  0
 17 24  1  0  0  0  0
M  END
