 xtb: 6.7.1 (edcfbbe)
          04062518003D

 24 24  0     0  0            999 V2000
   -2.4336   -0.2409   -0.6120 C   0  0  0  0  0  0  0  0  0  0  0  0
   -1.2234   -0.2249    0.3299 C   0  0  0  0  0  0  0  0  0  0  0  0
   -1.5253   -0.6093    1.3189 H   0  0  0  0  0  0  0  0  0  0  0  0
   -0.6288    1.1893    0.5101 C   0  0  0  0  0  0  0  0  0  0  0  0
   -1.3975    1.9314    0.2590 H   0  0  0  0  0  0  0  0  0  0  0  0
    0.5754    1.3770   -0.4346 C   0  0  0  0  0  0  0  0  0  0  0  0
    1.0197    2.3599   -0.2307 H   0  0  0  0  0  0  0  0  0  0  0  0
    1.6597    0.3297   -0.0984 C   0  0  0  0  0  0  0  0  0  0  0  0
    2.2585    0.1639   -0.9998 H   0  0  0  0  0  0  0  0  0  0  0  0
    1.0074   -1.0119    0.3238 C   0  0  0  0  0  0  0  0  0  0  0  0
    0.9507   -1.0464    1.4249 H   0  0  0  0  0  0  0  0  0  0  0  0
   -0.2819   -1.1282   -0.2312 O   0  0  0  0  0  0  0  0  0  0  0  0
    1.7396   -2.1197   -0.0534 O   0  0  0  0  0  0  0  0  0  0  0  0
    2.5507    0.8022    0.8749 O   0  0  0  0  0  0  0  0  0  0  0  0
    0.2081    1.2507   -1.7839 O   0  0  0  0  0  0  0  0  0  0  0  0
   -0.1447    1.4018    1.8169 O   0  0  0  0  0  0  0  0  0  0  0  0
   -3.0600   -1.4970   -0.6354 O   0  0  0  0  0  0  0  0  0  0  0  0
   -2.0897    0.0430   -1.6134 H   0  0  0  0  0  0  0  0  0  0  0  0
   -3.1895    0.4653   -0.2640 H   0  0  0  0  0  0  0  0  0  0  0  0
    1.6899   -2.2237   -1.0167 H   0  0  0  0  0  0  0  0  0  0  0  0
    2.0455    1.0471    1.6672 H   0  0  0  0  0  0  0  0  0  0  0  0
   -0.1064    2.1005   -2.1226 H   0  0  0  0  0  0  0  0  0  0  0  0
   -0.8825    1.5045    2.4348 H   0  0  0  0  0  0  0  0  0  0  0  0
   -2.4022   -2.1588   -0.8933 H   0  0  0  0  0  0  0  0  0  0  0  0
  1  2  1  0  0  0  0
  2  3  1  0  0  0  0
  2  4  1  0  0  0  0
  4  5  1  0  0  0  0
  4  6  1  0  0  0  0
  6  7  1  0  0  0  0
  6  8  1  0  0  0  0
  8  9  1  0  0  0  0
  8 10  1  0  0  0  0
 10 11  1  0  0  0  0
  2 12  1  0  0  0  0
 10 12  1  0  0  0  0
 10 13  1  0  0  0  0
  8 14  1  0  0  0  0
  6 15  1  0  0  0  0
  4 16  1  0  0  0  0
  1 17  1  0  0  0  0
  1 18  1  0  0  0  0
  1 19  1  0  0  0  0
 13 20  1  0  0  0  0
 14 21  1  0  0  0  0
 15 22  1  0  0  0  0
 16 23  1  0  0  0  0
 17 24  1  0  0  0  0
M  END
