 xtb: 6.7.1 (edcfbbe)
          04032521523D

 16 16  0     0  0            999 V2000
    0.7357   -1.1905   -0.2185 C   0  0  0  0  0  0  0  0  0  0  0  0
   -0.7357   -1.1971    0.2142 C   0  0  0  0  0  0  0  0  0  0  0  0
   -1.3771    0.0003   -0.3055 N   0  0  0  0  0  0  0  0  0  0  0  0
   -0.7354    1.1972    0.2147 C   0  0  0  0  0  0  0  0  0  0  0  0
    0.7356    1.1902   -0.2190 C   0  0  0  0  0  0  0  0  0  0  0  0
    1.4406   -0.0000    0.2298 N   0  0  0  0  0  0  0  0  0  0  0  0
    0.7832   -1.2062   -1.3098 H   0  0  0  0  0  0  0  0  0  0  0  0
    1.2482   -2.0707    0.1728 H   0  0  0  0  0  0  0  0  0  0  0  0
   -1.2435   -2.0717   -0.1955 H   0  0  0  0  0  0  0  0  0  0  0  0
   -0.7851   -1.2486    1.3196 H   0  0  0  0  0  0  0  0  0  0  0  0
   -2.3635    0.0004   -0.0675 H   0  0  0  0  0  0  0  0  0  0  0  0
   -1.2435    2.0722   -0.1936 H   0  0  0  0  0  0  0  0  0  0  0  0
   -0.7838    1.2475    1.3202 H   0  0  0  0  0  0  0  0  0  0  0  0
    0.7822    1.2049   -1.3104 H   0  0  0  0  0  0  0  0  0  0  0  0
    1.2486    2.0708    0.1710 H   0  0  0  0  0  0  0  0  0  0  0  0
    1.4726    0.0002    1.2469 H   0  0  0  0  0  0  0  0  0  0  0  0
  1  2  1  0  0  0  0
  2  3  1  0  0  0  0
  3  4  1  0  0  0  0
  4  5  1  0  0  0  0
  1  6  1  0  0  0  0
  5  6  1  0  0  0  0
  1  7  1  0  0  0  0
  1  8  1  0  0  0  0
  2  9  1  0  0  0  0
  2 10  1  0  0  0  0
  3 11  1  0  0  0  0
  4 12  1  0  0  0  0
  4 13  1  0  0  0  0
  5 14  1  0  0  0  0
  5 15  1  0  0  0  0
  6 16  1  0  0  0  0
M  END
