 xtb: 6.7.1 (edcfbbe)
          04062518003D

 24 24  0     0  0            999 V2000
   -2.2107   -1.0334   -0.4208 C   0  0  0  0  0  0  0  0  0  0  0  0
   -1.1662   -0.2387    0.3820 C   0  0  0  0  0  0  0  0  0  0  0  0
   -1.6590    0.1297    1.2920 H   0  0  0  0  0  0  0  0  0  0  0  0
   -0.6105    0.9549   -0.4046 C   0  0  0  0  0  0  0  0  0  0  0  0
   -0.4877    0.7028   -1.4646 H   0  0  0  0  0  0  0  0  0  0  0  0
    0.7611    1.3342    0.1779 C   0  0  0  0  0  0  0  0  0  0  0  0
    0.6582    1.4976    1.2637 H   0  0  0  0  0  0  0  0  0  0  0  0
    1.7521    0.1811   -0.0437 C   0  0  0  0  0  0  0  0  0  0  0  0
    2.1259    0.2508   -1.0771 H   0  0  0  0  0  0  0  0  0  0  0  0
    1.0554   -1.1863    0.1368 C   0  0  0  0  0  0  0  0  0  0  0  0
    1.6996   -1.8161    0.7612 H   0  0  0  0  0  0  0  0  0  0  0  0
   -0.1333   -1.0932    0.8784 O   0  0  0  0  0  0  0  0  0  0  0  0
    0.8908   -1.8753   -1.0627 O   0  0  0  0  0  0  0  0  0  0  0  0
    2.8254    0.2344    0.8589 O   0  0  0  0  0  0  0  0  0  0  0  0
    1.2784    2.4875   -0.4384 O   0  0  0  0  0  0  0  0  0  0  0  0
   -1.4821    2.0545   -0.4054 O   0  0  0  0  0  0  0  0  0  0  0  0
   -2.9400   -1.9102    0.3998 O   0  0  0  0  0  0  0  0  0  0  0  0
   -1.7178   -1.5886   -1.2281 H   0  0  0  0  0  0  0  0  0  0  0  0
   -2.9356   -0.3375   -0.8487 H   0  0  0  0  0  0  0  0  0  0  0  0
    0.5777   -1.2923   -1.7699 H   0  0  0  0  0  0  0  0  0  0  0  0
    3.2856    1.0811    0.7523 H   0  0  0  0  0  0  0  0  0  0  0  0
    0.5414    3.0891   -0.6334 H   0  0  0  0  0  0  0  0  0  0  0  0
   -1.7535    2.2685    0.5001 H   0  0  0  0  0  0  0  0  0  0  0  0
   -2.3167   -2.5022    0.8456 H   0  0  0  0  0  0  0  0  0  0  0  0
  1  2  1  0  0  0  0
  2  3  1  0  0  0  0
  2  4  1  0  0  0  0
  4  5  1  0  0  0  0
  4  6  1  0  0  0  0
  6  7  1  0  0  0  0
  6  8  1  0  0  0  0
  8  9  1  0  0  0  0
  8 10  1  0  0  0  0
 10 11  1  0  0  0  0
  2 12  1  0  0  0  0
 10 12  1  0  0  0  0
 10 13  1  0  0  0  0
  8 14  1  0  0  0  0
  6 15  1  0  0  0  0
  4 16  1  0  0  0  0
  1 17  1  0  0  0  0
  1 18  1  0  0  0  0
  1 19  1  0  0  0  0
 13 20  1  0  0  0  0
 14 21  1  0  0  0  0
 15 22  1  0  0  0  0
 16 23  1  0  0  0  0
 17 24  1  0  0  0  0
M  END
