 xtb: 6.7.1 (edcfbbe)
          04062518003D

 24 24  0     0  0            999 V2000
   -2.2614   -0.6350   -0.6734 C   0  0  0  0  0  0  0  0  0  0  0  0
   -1.3810   -0.4826    0.5748 C   0  0  0  0  0  0  0  0  0  0  0  0
   -2.0107   -0.7237    1.4441 H   0  0  0  0  0  0  0  0  0  0  0  0
   -0.8627    0.9448    0.8022 C   0  0  0  0  0  0  0  0  0  0  0  0
   -1.6840    1.6368    0.5647 H   0  0  0  0  0  0  0  0  0  0  0  0
    0.3341    1.3302   -0.1009 C   0  0  0  0  0  0  0  0  0  0  0  0
    0.9728    2.0321    0.4483 H   0  0  0  0  0  0  0  0  0  0  0  0
    1.2072    0.1103   -0.4362 C   0  0  0  0  0  0  0  0  0  0  0  0
    0.9155   -0.2873   -1.4202 H   0  0  0  0  0  0  0  0  0  0  0  0
    0.9735   -1.0062    0.5918 C   0  0  0  0  0  0  0  0  0  0  0  0
    1.2116   -0.6286    1.6061 H   0  0  0  0  0  0  0  0  0  0  0  0
   -0.3538   -1.4682    0.5519 O   0  0  0  0  0  0  0  0  0  0  0  0
    1.7970   -2.0695    0.2571 O   0  0  0  0  0  0  0  0  0  0  0  0
    2.5533    0.5112   -0.4414 O   0  0  0  0  0  0  0  0  0  0  0  0
   -0.0883    2.0259   -1.2401 O   0  0  0  0  0  0  0  0  0  0  0  0
   -0.5379    1.0353    2.1730 O   0  0  0  0  0  0  0  0  0  0  0  0
   -1.5764   -0.2335   -1.8417 O   0  0  0  0  0  0  0  0  0  0  0  0
   -3.1651   -0.0290   -0.5339 H   0  0  0  0  0  0  0  0  0  0  0  0
   -2.5358   -1.6924   -0.7373 H   0  0  0  0  0  0  0  0  0  0  0  0
    1.5107   -2.8599    0.7395 H   0  0  0  0  0  0  0  0  0  0  0  0
    3.1072   -0.2730   -0.5766 H   0  0  0  0  0  0  0  0  0  0  0  0
   -0.6344    1.4178   -1.7737 H   0  0  0  0  0  0  0  0  0  0  0  0
   -0.3574    1.9573    2.4072 H   0  0  0  0  0  0  0  0  0  0  0  0
   -2.0888   -0.5102   -2.6152 H   0  0  0  0  0  0  0  0  0  0  0  0
  1  2  1  0  0  0  0
  2  3  1  0  0  0  0
  2  4  1  0  0  0  0
  4  5  1  0  0  0  0
  4  6  1  0  0  0  0
  6  7  1  0  0  0  0
  6  8  1  0  0  0  0
  8  9  1  0  0  0  0
  8 10  1  0  0  0  0
 10 11  1  0  0  0  0
  2 12  1  0  0  0  0
 10 12  1  0  0  0  0
 10 13  1  0  0  0  0
  8 14  1  0  0  0  0
  6 15  1  0  0  0  0
  4 16  1  0  0  0  0
  1 17  1  0  0  0  0
  1 18  1  0  0  0  0
  1 19  1  0  0  0  0
 13 20  1  0  0  0  0
 14 21  1  0  0  0  0
 15 22  1  0  0  0  0
 16 23  1  0  0  0  0
 17 24  1  0  0  0  0
M  END
