 xtb: 6.7.1 (edcfbbe)
          04062518003D

 24 24  0     0  0            999 V2000
   -1.5215   -0.8791   -1.0051 C   0  0  0  0  0  0  0  0  0  0  0  0
   -1.2262   -0.3378    0.4114 C   0  0  0  0  0  0  0  0  0  0  0  0
   -2.1273   -0.4844    1.0180 H   0  0  0  0  0  0  0  0  0  0  0  0
   -0.8464    1.1511    0.4504 C   0  0  0  0  0  0  0  0  0  0  0  0
   -1.4768    1.7327   -0.2283 H   0  0  0  0  0  0  0  0  0  0  0  0
    0.6205    1.3703    0.0111 C   0  0  0  0  0  0  0  0  0  0  0  0
    1.1712    1.8063    0.8584 H   0  0  0  0  0  0  0  0  0  0  0  0
    1.3457    0.0760   -0.3893 C   0  0  0  0  0  0  0  0  0  0  0  0
    1.0050   -0.2287   -1.3873 H   0  0  0  0  0  0  0  0  0  0  0  0
    1.0592   -1.0816    0.5796 C   0  0  0  0  0  0  0  0  0  0  0  0
    1.7448   -1.0026    1.4399 H   0  0  0  0  0  0  0  0  0  0  0  0
   -0.2338   -1.0672    1.1283 O   0  0  0  0  0  0  0  0  0  0  0  0
    1.2976   -2.2647   -0.1249 O   0  0  0  0  0  0  0  0  0  0  0  0
    2.7211    0.3738   -0.4168 O   0  0  0  0  0  0  0  0  0  0  0  0
    0.6105    2.2689   -1.0712 O   0  0  0  0  0  0  0  0  0  0  0  0
   -1.0851    1.6820    1.7305 O   0  0  0  0  0  0  0  0  0  0  0  0
   -2.8802   -1.1924   -1.1854 O   0  0  0  0  0  0  0  0  0  0  0  0
   -0.9825   -1.8181   -1.1480 H   0  0  0  0  0  0  0  0  0  0  0  0
   -1.1911   -0.1595   -1.7627 H   0  0  0  0  0  0  0  0  0  0  0  0
    1.1748   -3.0295    0.4581 H   0  0  0  0  0  0  0  0  0  0  0  0
    3.2102   -0.3855   -0.7651 H   0  0  0  0  0  0  0  0  0  0  0  0
    1.5250    2.4648   -1.3246 H   0  0  0  0  0  0  0  0  0  0  0  0
   -0.6990    1.0926    2.3958 H   0  0  0  0  0  0  0  0  0  0  0  0
   -3.4049   -0.3802   -1.2071 H   0  0  0  0  0  0  0  0  0  0  0  0
  1  2  1  0  0  0  0
  2  3  1  0  0  0  0
  2  4  1  0  0  0  0
  4  5  1  0  0  0  0
  4  6  1  0  0  0  0
  6  7  1  0  0  0  0
  6  8  1  0  0  0  0
  8  9  1  0  0  0  0
  8 10  1  0  0  0  0
 10 11  1  0  0  0  0
  2 12  1  0  0  0  0
 10 12  1  0  0  0  0
 10 13  1  0  0  0  0
  8 14  1  0  0  0  0
  6 15  1  0  0  0  0
  4 16  1  0  0  0  0
  1 17  1  0  0  0  0
  1 18  1  0  0  0  0
  1 19  1  0  0  0  0
 13 20  1  0  0  0  0
 14 21  1  0  0  0  0
 15 22  1  0  0  0  0
 16 23  1  0  0  0  0
 17 24  1  0  0  0  0
M  END
