 xtb: 6.7.1 (edcfbbe)
          04032521353D

 14 13  0     0  0            999 V2000
   -0.9383    1.3973   -0.4540 C   0  0  0  0  0  0  0  0  0  0  0  0
   -0.4737    0.0093   -0.0031 C   0  0  0  0  0  0  0  0  0  0  0  0
   -0.9158   -1.0771   -0.9711 C   0  0  0  0  0  0  0  0  0  0  0  0
   -0.9153   -0.3017    1.4184 C   0  0  0  0  0  0  0  0  0  0  0  0
    1.3644   -0.0114    0.0040 Cl  0  0  0  0  0  0  0  0  0  0  0  0
   -1.5276    1.3222   -1.3634 H   0  0  0  0  0  0  0  0  0  0  0  0
   -1.5454    1.8625    0.3173 H   0  0  0  0  0  0  0  0  0  0  0  0
   -0.0937    2.0500   -0.6548 H   0  0  0  0  0  0  0  0  0  0  0  0
   -0.5455   -0.8716   -1.9723 H   0  0  0  0  0  0  0  0  0  0  0  0
   -0.5418   -2.0480   -0.6556 H   0  0  0  0  0  0  0  0  0  0  0  0
   -2.0023   -1.1118   -0.9962 H   0  0  0  0  0  0  0  0  0  0  0  0
   -0.5456    0.4532    2.1079 H   0  0  0  0  0  0  0  0  0  0  0  0
   -0.5403   -1.2723    1.7336 H   0  0  0  0  0  0  0  0  0  0  0  0
   -2.0017   -0.3160    1.4591 H   0  0  0  0  0  0  0  0  0  0  0  0
  1  2  1  0  0  0  0
  2  3  1  0  0  0  0
  2  4  1  0  0  0  0
  2  5  1  0  0  0  0
  1  6  1  0  0  0  0
  1  7  1  0  0  0  0
  1  8  1  0  0  0  0
  3  9  1  0  0  0  0
  3 10  1  0  0  0  0
  3 11  1  0  0  0  0
  4 12  1  0  0  0  0
  4 13  1  0  0  0  0
  4 14  1  0  0  0  0
M  END
