 xtb: 6.7.1 (edcfbbe)
          04052512103D

 26 25  0     0  0            999 V2000
   -1.6686   -1.3907    0.6096 C   0  0  0  0  0  0  0  0  0  0  0  0
   -1.4239    0.1103    0.4723 C   0  0  0  0  0  0  0  0  0  0  0  0
   -2.7192    0.7884    0.0180 C   0  0  0  0  0  0  0  0  0  0  0  0
   -0.3146    0.4699   -0.5274 C   0  0  0  0  0  0  0  0  0  0  0  0
    1.1493    0.0958   -0.2051 C   0  0  0  0  0  0  0  0  0  0  0  0
    2.0489    1.0128   -1.0468 C   0  0  0  0  0  0  0  0  0  0  0  0
    1.4803    0.3164    1.2723 C   0  0  0  0  0  0  0  0  0  0  0  0
    1.4673   -1.3508   -0.5950 C   0  0  0  0  0  0  0  0  0  0  0  0
   -2.5806   -1.5675    1.1767 H   0  0  0  0  0  0  0  0  0  0  0  0
   -1.7812   -1.8503   -0.3698 H   0  0  0  0  0  0  0  0  0  0  0  0
   -0.8542   -1.8815    1.1343 H   0  0  0  0  0  0  0  0  0  0  0  0
   -1.1631    0.5137    1.4553 H   0  0  0  0  0  0  0  0  0  0  0  0
   -2.5885    1.8658   -0.0548 H   0  0  0  0  0  0  0  0  0  0  0  0
   -3.0207    0.4129   -0.9577 H   0  0  0  0  0  0  0  0  0  0  0  0
   -3.5223    0.5898    0.7242 H   0  0  0  0  0  0  0  0  0  0  0  0
   -0.5723    0.0358   -1.4970 H   0  0  0  0  0  0  0  0  0  0  0  0
   -0.3483    1.5565   -0.6455 H   0  0  0  0  0  0  0  0  0  0  0  0
    1.9220    2.0527   -0.7539 H   0  0  0  0  0  0  0  0  0  0  0  0
    1.8049    0.9213   -2.1029 H   0  0  0  0  0  0  0  0  0  0  0  0
    3.0954    0.7474   -0.9139 H   0  0  0  0  0  0  0  0  0  0  0  0
    1.2158    1.3267    1.5766 H   0  0  0  0  0  0  0  0  0  0  0  0
    2.5468    0.1790    1.4377 H   0  0  0  0  0  0  0  0  0  0  0  0
    0.9482   -0.3887    1.9049 H   0  0  0  0  0  0  0  0  0  0  0  0
    1.2460   -1.5184   -1.6468 H   0  0  0  0  0  0  0  0  0  0  0  0
    0.8954   -2.0610   -0.0080 H   0  0  0  0  0  0  0  0  0  0  0  0
    2.5241   -1.5549   -0.4338 H   0  0  0  0  0  0  0  0  0  0  0  0
  1  2  1  0  0  0  0
  2  3  1  0  0  0  0
  2  4  1  0  0  0  0
  4  5  1  0  0  0  0
  5  6  1  0  0  0  0
  5  7  1  0  0  0  0
  5  8  1  0  0  0  0
  1  9  1  0  0  0  0
  1 10  1  0  0  0  0
  1 11  1  0  0  0  0
  2 12  1  0  0  0  0
  3 13  1  0  0  0  0
  3 14  1  0  0  0  0
  3 15  1  0  0  0  0
  4 16  1  0  0  0  0
  4 17  1  0  0  0  0
  6 18  1  0  0  0  0
  6 19  1  0  0  0  0
  6 20  1  0  0  0  0
  7 21  1  0  0  0  0
  7 22  1  0  0  0  0
  7 23  1  0  0  0  0
  8 24  1  0  0  0  0
  8 25  1  0  0  0  0
  8 26  1  0  0  0  0
M  END
