 xtb: 6.7.1 (edcfbbe)
          04032521513D

 17 17  0     0  0            999 V2000
    2.8858   -0.0726    0.0068 C   0  0  0  0  0  0  0  0  0  0  0  0
    1.3921    0.0039   -0.0039 C   0  0  0  0  0  0  0  0  0  0  0  0
    0.7116    1.2173   -0.0034 C   0  0  0  0  0  0  0  0  0  0  0  0
   -0.6707    1.2233   -0.0016 C   0  0  0  0  0  0  0  0  0  0  0  0
   -1.3552    0.0098    0.0000 C   0  0  0  0  0  0  0  0  0  0  0  0
   -0.7105   -1.1523   -0.0018 N   0  0  0  0  0  0  0  0  0  0  0  0
    0.6119   -1.1471   -0.0039 C   0  0  0  0  0  0  0  0  0  0  0  0
   -2.8511   -0.0372    0.0041 C   0  0  0  0  0  0  0  0  0  0  0  0
    3.2338   -0.4265    0.9765 H   0  0  0  0  0  0  0  0  0  0  0  0
    3.2364   -0.7722   -0.7488 H   0  0  0  0  0  0  0  0  0  0  0  0
    3.3228    0.9043   -0.1827 H   0  0  0  0  0  0  0  0  0  0  0  0
    1.2621    2.1476   -0.0053 H   0  0  0  0  0  0  0  0  0  0  0  0
   -1.2202    2.1523   -0.0023 H   0  0  0  0  0  0  0  0  0  0  0  0
    1.0755   -2.1260   -0.0073 H   0  0  0  0  0  0  0  0  0  0  0  0
   -3.1840   -1.0699   -0.0114 H   0  0  0  0  0  0  0  0  0  0  0  0
   -3.2386    0.4524    0.8953 H   0  0  0  0  0  0  0  0  0  0  0  0
   -3.2456    0.4825   -0.8666 H   0  0  0  0  0  0  0  0  0  0  0  0
  1  2  1  0  0  0  0
  2  3  4  0  0  0  0
  3  4  4  0  0  0  0
  4  5  4  0  0  0  0
  5  6  4  0  0  0  0
  2  7  4  0  0  0  0
  6  7  4  0  0  0  0
  5  8  1  0  0  0  0
  1  9  1  0  0  0  0
  1 10  1  0  0  0  0
  1 11  1  0  0  0  0
  3 12  1  0  0  0  0
  4 13  1  0  0  0  0
  7 14  1  0  0  0  0
  8 15  1  0  0  0  0
  8 16  1  0  0  0  0
  8 17  1  0  0  0  0
M  END
