 xtb: 6.7.1 (edcfbbe)
          04062518003D

 24 24  0     0  0            999 V2000
   -2.3807   -1.1393   -0.3800 C   0  0  0  0  0  0  0  0  0  0  0  0
   -1.0790   -0.6196    0.2394 C   0  0  0  0  0  0  0  0  0  0  0  0
   -1.1624   -0.6298    1.3388 H   0  0  0  0  0  0  0  0  0  0  0  0
   -0.7902    0.8338   -0.1870 C   0  0  0  0  0  0  0  0  0  0  0  0
   -0.9007    0.9278   -1.2790 H   0  0  0  0  0  0  0  0  0  0  0  0
    0.6445    1.2487    0.1671 C   0  0  0  0  0  0  0  0  0  0  0  0
    0.6957    1.4070    1.2554 H   0  0  0  0  0  0  0  0  0  0  0  0
    1.6592    0.1650   -0.2158 C   0  0  0  0  0  0  0  0  0  0  0  0
    1.7083    0.0924   -1.3128 H   0  0  0  0  0  0  0  0  0  0  0  0
    1.2056   -1.1988    0.3204 C   0  0  0  0  0  0  0  0  0  0  0  0
    1.1716   -1.1555    1.4300 H   0  0  0  0  0  0  0  0  0  0  0  0
   -0.0726   -1.5205   -0.1740 O   0  0  0  0  0  0  0  0  0  0  0  0
    2.0994   -2.1548   -0.1185 O   0  0  0  0  0  0  0  0  0  0  0  0
    2.9025    0.5404    0.3183 O   0  0  0  0  0  0  0  0  0  0  0  0
    0.9258    2.4462   -0.5109 O   0  0  0  0  0  0  0  0  0  0  0  0
   -1.6529    1.7217    0.4749 O   0  0  0  0  0  0  0  0  0  0  0  0
   -3.4567   -0.3484    0.0645 O   0  0  0  0  0  0  0  0  0  0  0  0
   -2.5020   -2.1855   -0.0771 H   0  0  0  0  0  0  0  0  0  0  0  0
   -2.2790   -1.0969   -1.4713 H   0  0  0  0  0  0  0  0  0  0  0  0
    1.7298   -3.0407    0.0208 H   0  0  0  0  0  0  0  0  0  0  0  0
    3.5519   -0.1503    0.1178 H   0  0  0  0  0  0  0  0  0  0  0  0
    1.8255    2.7225   -0.2796 H   0  0  0  0  0  0  0  0  0  0  0  0
   -2.5651    1.3967    0.3699 H   0  0  0  0  0  0  0  0  0  0  0  0
   -4.2825   -0.6903   -0.3074 H   0  0  0  0  0  0  0  0  0  0  0  0
  1  2  1  0  0  0  0
  2  3  1  0  0  0  0
  2  4  1  0  0  0  0
  4  5  1  0  0  0  0
  4  6  1  0  0  0  0
  6  7  1  0  0  0  0
  6  8  1  0  0  0  0
  8  9  1  0  0  0  0
  8 10  1  0  0  0  0
 10 11  1  0  0  0  0
  2 12  1  0  0  0  0
 10 12  1  0  0  0  0
 10 13  1  0  0  0  0
  8 14  1  0  0  0  0
  6 15  1  0  0  0  0
  4 16  1  0  0  0  0
  1 17  1  0  0  0  0
  1 18  1  0  0  0  0
  1 19  1  0  0  0  0
 13 20  1  0  0  0  0
 14 21  1  0  0  0  0
 15 22  1  0  0  0  0
 16 23  1  0  0  0  0
 17 24  1  0  0  0  0
M  END
