 xtb: 6.7.1 (edcfbbe)
          04062520053D

 27 27  0     0  0            999 V2000
   -2.8268    1.2891    0.7363 C   0  0  0  0  0  0  0  0  0  0  0  0
   -1.6965    0.5798    0.0616 C   0  0  0  0  0  0  0  0  0  0  0  0
   -0.8819    1.1275   -0.8314 C   0  0  0  0  0  0  0  0  0  0  0  0
    0.2245    0.3219   -1.4300 C   0  0  0  0  0  0  0  0  0  0  0  0
    0.9884   -0.5124   -0.3771 C   0  0  0  0  0  0  0  0  0  0  0  0
    1.3835   -1.3917   -0.8927 H   0  0  0  0  0  0  0  0  0  0  0  0
    0.0713   -0.9970    0.7678 C   0  0  0  0  0  0  0  0  0  0  0  0
   -1.4218   -0.8546    0.4501 C   0  0  0  0  0  0  0  0  0  0  0  0
   -1.9964   -1.1168    1.3538 H   0  0  0  0  0  0  0  0  0  0  0  0
   -1.7463   -1.7803   -0.5802 O   0  0  0  0  0  0  0  0  0  0  0  0
    2.1555    0.2497    0.2117 C   0  0  0  0  0  0  0  0  0  0  0  0
    2.0723    1.5252    0.5545 C   0  0  0  0  0  0  0  0  0  0  0  0
    3.4029   -0.5548    0.4149 C   0  0  0  0  0  0  0  0  0  0  0  0
   -2.9242    2.3022    0.3556 H   0  0  0  0  0  0  0  0  0  0  0  0
   -2.6497    1.3327    1.8108 H   0  0  0  0  0  0  0  0  0  0  0  0
   -3.7660    0.7611    0.5773 H   0  0  0  0  0  0  0  0  0  0  0  0
   -1.0111    2.1488   -1.1606 H   0  0  0  0  0  0  0  0  0  0  0  0
   -0.2096   -0.3736   -2.1531 H   0  0  0  0  0  0  0  0  0  0  0  0
    0.9281    0.9637   -1.9607 H   0  0  0  0  0  0  0  0  0  0  0  0
    0.2769   -2.0441    0.9913 H   0  0  0  0  0  0  0  0  0  0  0  0
    0.2666   -0.4085    1.6660 H   0  0  0  0  0  0  0  0  0  0  0  0
   -2.6743   -1.6691   -0.8229 H   0  0  0  0  0  0  0  0  0  0  0  0
    2.9048    2.0506    0.9916 H   0  0  0  0  0  0  0  0  0  0  0  0
    1.1686    2.0933    0.4150 H   0  0  0  0  0  0  0  0  0  0  0  0
    3.1848   -1.4312    1.0234 H   0  0  0  0  0  0  0  0  0  0  0  0
    3.7838   -0.9031   -0.5444 H   0  0  0  0  0  0  0  0  0  0  0  0
    4.1738    0.0333    0.9053 H   0  0  0  0  0  0  0  0  0  0  0  0
  1  2  1  0  0  0  0
  2  3  2  0  0  0  0
  3  4  1  0  0  0  0
  4  5  1  0  0  0  0
  5  6  1  0  0  0  0
  5  7  1  0  0  0  0
  2  8  1  0  0  0  0
  7  8  1  0  0  0  0
  8  9  1  0  0  0  0
  8 10  1  0  0  0  0
  5 11  1  0  0  0  0
 11 12  2  0  0  0  0
 11 13  1  0  0  0  0
  1 14  1  0  0  0  0
  1 15  1  0  0  0  0
  1 16  1  0  0  0  0
  3 17  1  0  0  0  0
  4 18  1  0  0  0  0
  4 19  1  0  0  0  0
  7 20  1  0  0  0  0
  7 21  1  0  0  0  0
 10 22  1  0  0  0  0
 12 23  1  0  0  0  0
 12 24  1  0  0  0  0
 13 25  1  0  0  0  0
 13 26  1  0  0  0  0
 13 27  1  0  0  0  0
M  END
