 xtb: 6.7.1 (edcfbbe)
          04052516073D

 27 27  0     0  0            999 V2000
   -2.9442    0.6782    0.7188 C   0  0  0  0  0  0  0  0  0  0  0  0
   -1.4659    0.3075    0.6238 C   0  0  0  0  0  0  0  0  0  0  0  0
   -1.1068    0.0791    1.6344 H   0  0  0  0  0  0  0  0  0  0  0  0
   -0.6144    1.4569    0.0452 C   0  0  0  0  0  0  0  0  0  0  0  0
    0.2250    1.0100   -1.1446 C   0  0  0  0  0  0  0  0  0  0  0  0
    1.0813   -0.2141   -0.7875 C   0  0  0  0  0  0  0  0  0  0  0  0
    1.6503   -0.4911   -1.6811 H   0  0  0  0  0  0  0  0  0  0  0  0
    0.1405   -1.3839   -0.4520 C   0  0  0  0  0  0  0  0  0  0  0  0
   -1.2777   -0.9820   -0.1417 C   0  0  0  0  0  0  0  0  0  0  0  0
   -2.2126   -1.6971   -0.4530 O   0  0  0  0  0  0  0  0  0  0  0  0
    2.0944    0.1301    0.2823 C   0  0  0  0  0  0  0  0  0  0  0  0
    1.9241   -0.0782    1.5782 C   0  0  0  0  0  0  0  0  0  0  0  0
    3.3518    0.7543   -0.2466 C   0  0  0  0  0  0  0  0  0  0  0  0
   -3.0734    1.5571    1.3441 H   0  0  0  0  0  0  0  0  0  0  0  0
   -3.3440    0.8838   -0.2718 H   0  0  0  0  0  0  0  0  0  0  0  0
   -3.5130   -0.1460    1.1432 H   0  0  0  0  0  0  0  0  0  0  0  0
   -1.2777    2.2624   -0.2711 H   0  0  0  0  0  0  0  0  0  0  0  0
    0.0453    1.8527    0.8176 H   0  0  0  0  0  0  0  0  0  0  0  0
   -0.4318    0.7394   -1.9752 H   0  0  0  0  0  0  0  0  0  0  0  0
    0.8599    1.8344   -1.4703 H   0  0  0  0  0  0  0  0  0  0  0  0
    0.0977   -2.0951   -1.2794 H   0  0  0  0  0  0  0  0  0  0  0  0
    0.5117   -1.9353    0.4146 H   0  0  0  0  0  0  0  0  0  0  0  0
    2.6816    0.1972    2.2925 H   0  0  0  0  0  0  0  0  0  0  0  0
    1.0400   -0.5303    1.9927 H   0  0  0  0  0  0  0  0  0  0  0  0
    3.1200    1.6147   -0.8714 H   0  0  0  0  0  0  0  0  0  0  0  0
    3.9998    1.0747    0.5639 H   0  0  0  0  0  0  0  0  0  0  0  0
    3.8927    0.0356   -0.8611 H   0  0  0  0  0  0  0  0  0  0  0  0
  1  2  1  0  0  0  0
  2  3  1  0  0  0  0
  2  4  1  0  0  0  0
  4  5  1  0  0  0  0
  5  6  1  0  0  0  0
  6  7  1  0  0  0  0
  6  8  1  0  0  0  0
  2  9  1  0  0  0  0
  8  9  1  0  0  0  0
  9 10  2  0  0  0  0
  6 11  1  0  0  0  0
 11 12  2  0  0  0  0
 11 13  1  0  0  0  0
  1 14  1  0  0  0  0
  1 15  1  0  0  0  0
  1 16  1  0  0  0  0
  4 17  1  0  0  0  0
  4 18  1  0  0  0  0
  5 19  1  0  0  0  0
  5 20  1  0  0  0  0
  8 21  1  0  0  0  0
  8 22  1  0  0  0  0
 12 23  1  0  0  0  0
 12 24  1  0  0  0  0
 13 25  1  0  0  0  0
 13 26  1  0  0  0  0
 13 27  1  0  0  0  0
M  END
