 xtb: 6.7.1 (edcfbbe)
          04062518003D

 24 24  0     0  0            999 V2000
   -2.1250   -1.1794   -0.1860 C   0  0  0  0  0  0  0  0  0  0  0  0
   -1.2617   -0.3279    0.7551 C   0  0  0  0  0  0  0  0  0  0  0  0
   -1.8517   -0.1296    1.6560 H   0  0  0  0  0  0  0  0  0  0  0  0
   -0.9035    1.0344    0.1304 C   0  0  0  0  0  0  0  0  0  0  0  0
   -1.1625    1.0282   -0.9412 H   0  0  0  0  0  0  0  0  0  0  0  0
    0.6089    1.2872    0.2503 C   0  0  0  0  0  0  0  0  0  0  0  0
    0.8856    1.3529    1.3084 H   0  0  0  0  0  0  0  0  0  0  0  0
    1.3265    0.0986   -0.3906 C   0  0  0  0  0  0  0  0  0  0  0  0
    0.9473   -0.0235   -1.4194 H   0  0  0  0  0  0  0  0  0  0  0  0
    0.9847   -1.1842    0.4097 C   0  0  0  0  0  0  0  0  0  0  0  0
    1.8119   -1.4057    1.0959 H   0  0  0  0  0  0  0  0  0  0  0  0
   -0.1247   -1.0181    1.2592 O   0  0  0  0  0  0  0  0  0  0  0  0
    0.8696   -2.2931   -0.4203 O   0  0  0  0  0  0  0  0  0  0  0  0
    2.7090    0.3469   -0.4106 O   0  0  0  0  0  0  0  0  0  0  0  0
    0.9449    2.5280   -0.3136 O   0  0  0  0  0  0  0  0  0  0  0  0
   -1.6452    2.0353    0.7823 O   0  0  0  0  0  0  0  0  0  0  0  0
   -1.4893   -1.3325   -1.4437 O   0  0  0  0  0  0  0  0  0  0  0  0
   -3.0833   -0.6650   -0.3031 H   0  0  0  0  0  0  0  0  0  0  0  0
   -2.2838   -2.1563    0.2841 H   0  0  0  0  0  0  0  0  0  0  0  0
    0.0874   -2.1642   -0.9992 H   0  0  0  0  0  0  0  0  0  0  0  0
    3.1666   -0.3961   -0.8296 H   0  0  0  0  0  0  0  0  0  0  0  0
    1.0639    2.4369   -1.2700 H   0  0  0  0  0  0  0  0  0  0  0  0
   -1.2193    2.8899    0.6072 H   0  0  0  0  0  0  0  0  0  0  0  0
   -2.1034   -1.7632   -2.0564 H   0  0  0  0  0  0  0  0  0  0  0  0
  1  2  1  0  0  0  0
  2  3  1  0  0  0  0
  2  4  1  0  0  0  0
  4  5  1  0  0  0  0
  4  6  1  0  0  0  0
  6  7  1  0  0  0  0
  6  8  1  0  0  0  0
  8  9  1  0  0  0  0
  8 10  1  0  0  0  0
 10 11  1  0  0  0  0
  2 12  1  0  0  0  0
 10 12  1  0  0  0  0
 10 13  1  0  0  0  0
  8 14  1  0  0  0  0
  6 15  1  0  0  0  0
  4 16  1  0  0  0  0
  1 17  1  0  0  0  0
  1 18  1  0  0  0  0
  1 19  1  0  0  0  0
 13 20  1  0  0  0  0
 14 21  1  0  0  0  0
 15 22  1  0  0  0  0
 16 23  1  0  0  0  0
 17 24  1  0  0  0  0
M  END
