 xtb: 6.7.1 (edcfbbe)
          04052518533D

 23 23  0     0  0            999 V2000
   -2.8109    0.6037    0.5829 C   0  0  0  0  0  0  0  0  0  0  0  0
   -1.6290   -0.0320   -0.0877 C   0  0  0  0  0  0  0  0  0  0  0  0
   -1.6847   -0.4808   -1.2161 O   0  0  0  0  0  0  0  0  0  0  0  0
   -0.3542   -0.0458    0.7324 C   0  0  0  0  0  0  0  0  0  0  0  0
    0.4274    1.2402    0.3733 C   0  0  0  0  0  0  0  0  0  0  0  0
    1.3199    0.9888   -0.8350 C   0  0  0  0  0  0  0  0  0  0  0  0
    2.4403    0.0043   -0.4778 C   0  0  0  0  0  0  0  0  0  0  0  0
    1.9785   -1.0011    0.5839 C   0  0  0  0  0  0  0  0  0  0  0  0
    0.4903   -1.2934    0.4342 C   0  0  0  0  0  0  0  0  0  0  0  0
   -2.5159    1.5112    1.1014 H   0  0  0  0  0  0  0  0  0  0  0  0
   -3.5928    0.8139   -0.1417 H   0  0  0  0  0  0  0  0  0  0  0  0
   -3.1943   -0.0969    1.3227 H   0  0  0  0  0  0  0  0  0  0  0  0
   -0.6181   -0.0084    1.7916 H   0  0  0  0  0  0  0  0  0  0  0  0
   -0.2705    2.0524    0.1610 H   0  0  0  0  0  0  0  0  0  0  0  0
    1.0409    1.5401    1.2232 H   0  0  0  0  0  0  0  0  0  0  0  0
    0.7046    0.5847   -1.6417 H   0  0  0  0  0  0  0  0  0  0  0  0
    1.7476    1.9281   -1.1881 H   0  0  0  0  0  0  0  0  0  0  0  0
    2.7505   -0.5252   -1.3798 H   0  0  0  0  0  0  0  0  0  0  0  0
    3.3079    0.5498   -0.1027 H   0  0  0  0  0  0  0  0  0  0  0  0
    2.5474   -1.9268    0.4895 H   0  0  0  0  0  0  0  0  0  0  0  0
    2.1622   -0.6043    1.5839 H   0  0  0  0  0  0  0  0  0  0  0  0
    0.2868   -1.6215   -0.5878 H   0  0  0  0  0  0  0  0  0  0  0  0
    0.1944   -2.1012    1.1058 H   0  0  0  0  0  0  0  0  0  0  0  0
  1  2  1  0  0  0  0
  2  3  2  0  0  0  0
  2  4  1  0  0  0  0
  4  5  1  0  0  0  0
  5  6  1  0  0  0  0
  6  7  1  0  0  0  0
  7  8  1  0  0  0  0
  4  9  1  0  0  0  0
  8  9  1  0  0  0  0
  1 10  1  0  0  0  0
  1 11  1  0  0  0  0
  1 12  1  0  0  0  0
  4 13  1  0  0  0  0
  5 14  1  0  0  0  0
  5 15  1  0  0  0  0
  6 16  1  0  0  0  0
  6 17  1  0  0  0  0
  7 18  1  0  0  0  0
  7 19  1  0  0  0  0
  8 20  1  0  0  0  0
  8 21  1  0  0  0  0
  9 22  1  0  0  0  0
  9 23  1  0  0  0  0
M  END
