 xtb: 6.7.1 (edcfbbe)
          04032521463D

 19 19  0     0  0            999 V2000
    2.1329   -0.5719   -0.5961 C   0  0  0  0  0  0  0  0  0  0  0  0
    1.1637   -0.1404    0.5064 C   0  0  0  0  0  0  0  0  0  0  0  0
    1.6149   -0.3471    1.4827 H   0  0  0  0  0  0  0  0  0  0  0  0
    0.7382    1.3337    0.3604 C   0  0  0  0  0  0  0  0  0  0  0  0
   -0.6496    1.2632   -0.2935 C   0  0  0  0  0  0  0  0  0  0  0  0
   -0.9503   -0.2453   -0.4083 C   0  0  0  0  0  0  0  0  0  0  0  0
   -0.7520   -0.5908   -1.4361 H   0  0  0  0  0  0  0  0  0  0  0  0
   -0.0404   -0.8935    0.4748 O   0  0  0  0  0  0  0  0  0  0  0  0
   -2.3723   -0.6210   -0.0202 C   0  0  0  0  0  0  0  0  0  0  0  0
    2.2987   -1.6447   -0.5376 H   0  0  0  0  0  0  0  0  0  0  0  0
    1.7257   -0.3342   -1.5757 H   0  0  0  0  0  0  0  0  0  0  0  0
    3.0819   -0.0586   -0.4717 H   0  0  0  0  0  0  0  0  0  0  0  0
    0.6810    1.8085    1.3382 H   0  0  0  0  0  0  0  0  0  0  0  0
    1.4531    1.8817   -0.2490 H   0  0  0  0  0  0  0  0  0  0  0  0
   -1.3993    1.7430    0.3337 H   0  0  0  0  0  0  0  0  0  0  0  0
   -0.6660    1.7362   -1.2728 H   0  0  0  0  0  0  0  0  0  0  0  0
   -2.5651   -0.3185    1.0058 H   0  0  0  0  0  0  0  0  0  0  0  0
   -2.5009   -1.6973   -0.0932 H   0  0  0  0  0  0  0  0  0  0  0  0
   -3.0771   -0.1287   -0.6835 H   0  0  0  0  0  0  0  0  0  0  0  0
  1  2  1  0  0  0  0
  2  3  1  0  0  0  0
  2  4  1  0  0  0  0
  4  5  1  0  0  0  0
  5  6  1  0  0  0  0
  6  7  1  0  0  0  0
  2  8  1  0  0  0  0
  6  8  1  0  0  0  0
  6  9  1  0  0  0  0
  1 10  1  0  0  0  0
  1 11  1  0  0  0  0
  1 12  1  0  0  0  0
  4 13  1  0  0  0  0
  4 14  1  0  0  0  0
  5 15  1  0  0  0  0
  5 16  1  0  0  0  0
  9 17  1  0  0  0  0
  9 18  1  0  0  0  0
  9 19  1  0  0  0  0
M  END
