 xtb: 6.7.1 (edcfbbe)
          04062520053D

 27 27  0     0  0            999 V2000
   -2.6482    0.4077    1.2767 C   0  0  0  0  0  0  0  0  0  0  0  0
   -1.4572    0.4215    0.3678 C   0  0  0  0  0  0  0  0  0  0  0  0
   -0.8841    1.5422   -0.0502 C   0  0  0  0  0  0  0  0  0  0  0  0
    0.3347    1.6175   -0.9172 C   0  0  0  0  0  0  0  0  0  0  0  0
    1.0871    0.2872   -1.0074 C   0  0  0  0  0  0  0  0  0  0  0  0
    1.7162    0.3072   -1.9048 H   0  0  0  0  0  0  0  0  0  0  0  0
    0.0543   -0.8320   -1.1967 C   0  0  0  0  0  0  0  0  0  0  0  0
   -0.8880   -0.9356    0.0040 C   0  0  0  0  0  0  0  0  0  0  0  0
   -0.3380   -1.3306    0.8702 H   0  0  0  0  0  0  0  0  0  0  0  0
   -1.8993   -1.9045   -0.2263 O   0  0  0  0  0  0  0  0  0  0  0  0
    1.9975   -0.0199    0.1663 C   0  0  0  0  0  0  0  0  0  0  0  0
    2.9164   -0.9681    0.0501 C   0  0  0  0  0  0  0  0  0  0  0  0
    1.8513    0.7619    1.4356 C   0  0  0  0  0  0  0  0  0  0  0  0
   -2.3614    0.0072    2.2492 H   0  0  0  0  0  0  0  0  0  0  0  0
   -3.4266   -0.2410    0.8801 H   0  0  0  0  0  0  0  0  0  0  0  0
   -3.0466    1.4095    1.4103 H   0  0  0  0  0  0  0  0  0  0  0  0
   -1.3090    2.4957    0.2364 H   0  0  0  0  0  0  0  0  0  0  0  0
    0.0206    1.9117   -1.9246 H   0  0  0  0  0  0  0  0  0  0  0  0
    0.9933    2.4076   -0.5533 H   0  0  0  0  0  0  0  0  0  0  0  0
   -0.5400   -0.6133   -2.0880 H   0  0  0  0  0  0  0  0  0  0  0  0
    0.5514   -1.7920   -1.3433 H   0  0  0  0  0  0  0  0  0  0  0  0
   -2.3615   -1.6768   -1.0450 H   0  0  0  0  0  0  0  0  0  0  0  0
    3.5705   -1.2312    0.8638 H   0  0  0  0  0  0  0  0  0  0  0  0
    3.0527   -1.5231   -0.8631 H   0  0  0  0  0  0  0  0  0  0  0  0
    2.2312    1.7737    1.2989 H   0  0  0  0  0  0  0  0  0  0  0  0
    0.8086    0.8353    1.7329 H   0  0  0  0  0  0  0  0  0  0  0  0
    2.4198    0.2929    2.2343 H   0  0  0  0  0  0  0  0  0  0  0  0
  1  2  1  0  0  0  0
  2  3  2  0  0  0  0
  3  4  1  0  0  0  0
  4  5  1  0  0  0  0
  5  6  1  0  0  0  0
  5  7  1  0  0  0  0
  2  8  1  0  0  0  0
  7  8  1  0  0  0  0
  8  9  1  0  0  0  0
  8 10  1  0  0  0  0
  5 11  1  0  0  0  0
 11 12  2  0  0  0  0
 11 13  1  0  0  0  0
  1 14  1  0  0  0  0
  1 15  1  0  0  0  0
  1 16  1  0  0  0  0
  3 17  1  0  0  0  0
  4 18  1  0  0  0  0
  4 19  1  0  0  0  0
  7 20  1  0  0  0  0
  7 21  1  0  0  0  0
 10 22  1  0  0  0  0
 12 23  1  0  0  0  0
 12 24  1  0  0  0  0
 13 25  1  0  0  0  0
 13 26  1  0  0  0  0
 13 27  1  0  0  0  0
M  END
