 xtb: 6.7.1 (edcfbbe)
          04032521433D

  8  7  0     0  0            999 V2000
   -0.4590   -0.9670    0.0041 C   0  0  0  0  0  0  0  0  0  0  0  0
    0.7459   -0.0482    0.0003 C   0  0  0  0  0  0  0  0  0  0  0  0
    0.8011    0.7566    1.0710 F   0  0  0  0  0  0  0  0  0  0  0  0
    0.7997    0.7479   -1.0768 F   0  0  0  0  0  0  0  0  0  0  0  0
    1.8928   -0.7528    0.0024 F   0  0  0  0  0  0  0  0  0  0  0  0
   -1.9439    0.0309   -0.0000 Cl  0  0  0  0  0  0  0  0  0  0  0  0
   -0.4478   -1.5841   -0.8943 H   0  0  0  0  0  0  0  0  0  0  0  0
   -0.4474   -1.5754    0.9082 H   0  0  0  0  0  0  0  0  0  0  0  0
  1  2  1  0  0  0  0
  2  3  1  0  0  0  0
  2  4  1  0  0  0  0
  2  5  1  0  0  0  0
  1  6  1  0  0  0  0
  1  7  1  0  0  0  0
  1  8  1  0  0  0  0
M  END
