 xtb: 6.7.1 (edcfbbe)
          04032521053D

 20 20  0     0  0            999 V2000
   -2.5217    0.7331   -0.0048 C   0  0  0  0  0  0  0  0  0  0  0  0
   -1.2143   -0.0072    0.0032 C   0  0  0  0  0  0  0  0  0  0  0  0
   -1.1940   -1.3916    0.0003 C   0  0  0  0  0  0  0  0  0  0  0  0
    0.0000   -2.0903    0.0019 C   0  0  0  0  0  0  0  0  0  0  0  0
    1.1941   -1.3916    0.0001 C   0  0  0  0  0  0  0  0  0  0  0  0
    1.2143   -0.0071    0.0032 C   0  0  0  0  0  0  0  0  0  0  0  0
   -0.0000    0.6987    0.0122 C   0  0  0  0  0  0  0  0  0  0  0  0
   -0.0001    2.0804   -0.0459 N   0  0  0  0  0  0  0  0  0  0  0  0
    2.5216    0.7331   -0.0047 C   0  0  0  0  0  0  0  0  0  0  0  0
   -3.3493    0.0304   -0.0515 H   0  0  0  0  0  0  0  0  0  0  0  0
   -2.6376    1.3317    0.8998 H   0  0  0  0  0  0  0  0  0  0  0  0
   -2.5828    1.3959   -0.8668 H   0  0  0  0  0  0  0  0  0  0  0  0
   -2.1303   -1.9325   -0.0036 H   0  0  0  0  0  0  0  0  0  0  0  0
    0.0001   -3.1702    0.0008 H   0  0  0  0  0  0  0  0  0  0  0  0
    2.1303   -1.9324   -0.0035 H   0  0  0  0  0  0  0  0  0  0  0  0
   -0.8438    2.5272    0.2724 H   0  0  0  0  0  0  0  0  0  0  0  0
    0.8437    2.5273    0.2723 H   0  0  0  0  0  0  0  0  0  0  0  0
    3.3494    0.0305   -0.0517 H   0  0  0  0  0  0  0  0  0  0  0  0
    2.5826    1.3962   -0.8666 H   0  0  0  0  0  0  0  0  0  0  0  0
    2.6375    1.3316    0.9001 H   0  0  0  0  0  0  0  0  0  0  0  0
  1  2  1  0  0  0  0
  2  3  4  0  0  0  0
  3  4  4  0  0  0  0
  4  5  4  0  0  0  0
  5  6  4  0  0  0  0
  2  7  4  0  0  0  0
  6  7  4  0  0  0  0
  7  8  1  0  0  0  0
  6  9  1  0  0  0  0
  1 10  1  0  0  0  0
  1 11  1  0  0  0  0
  1 12  1  0  0  0  0
  3 13  1  0  0  0  0
  4 14  1  0  0  0  0
  5 15  1  0  0  0  0
  8 16  1  0  0  0  0
  8 17  1  0  0  0  0
  9 18  1  0  0  0  0
  9 19  1  0  0  0  0
  9 20  1  0  0  0  0
M  END
