 xtb: 6.7.1 (edcfbbe)
          04062511353D

 27 27  0     0  0            999 V2000
    3.7095   -0.1515    0.0825 C   0  0  0  0  0  0  0  0  0  0  0  0
    2.2256   -0.1788   -0.0278 C   0  0  0  0  0  0  0  0  0  0  0  0
    1.4659    0.9013    0.2095 C   0  0  0  0  0  0  0  0  0  0  0  0
    0.0190    0.9375    0.0668 C   0  0  0  0  0  0  0  0  0  0  0  0
   -0.6074    1.9664    0.3028 O   0  0  0  0  0  0  0  0  0  0  0  0
   -0.6281   -0.3368   -0.4485 C   0  0  0  0  0  0  0  0  0  0  0  0
   -0.5047   -0.2878   -1.5404 H   0  0  0  0  0  0  0  0  0  0  0  0
    0.1561   -1.5515    0.0542 C   0  0  0  0  0  0  0  0  0  0  0  0
    1.6024   -1.4789   -0.4206 C   0  0  0  0  0  0  0  0  0  0  0  0
   -2.1391   -0.4578   -0.1655 C   0  0  0  0  0  0  0  0  0  0  0  0
   -2.4727   -0.2633    1.3124 C   0  0  0  0  0  0  0  0  0  0  0  0
   -2.9417    0.5194   -1.0240 C   0  0  0  0  0  0  0  0  0  0  0  0
    4.1566   -0.5501   -0.8261 H   0  0  0  0  0  0  0  0  0  0  0  0
    4.0271   -0.7873    0.9078 H   0  0  0  0  0  0  0  0  0  0  0  0
    4.0769    0.8559    0.2535 H   0  0  0  0  0  0  0  0  0  0  0  0
    1.9139    1.8390    0.5102 H   0  0  0  0  0  0  0  0  0  0  0  0
    0.1366   -1.5714    1.1454 H   0  0  0  0  0  0  0  0  0  0  0  0
   -0.3145   -2.4654   -0.3110 H   0  0  0  0  0  0  0  0  0  0  0  0
    2.1823   -2.3084   -0.0140 H   0  0  0  0  0  0  0  0  0  0  0  0
    1.6339   -1.5608   -1.5120 H   0  0  0  0  0  0  0  0  0  0  0  0
   -2.4335   -1.4760   -0.4492 H   0  0  0  0  0  0  0  0  0  0  0  0
   -2.2043    0.7414    1.6305 H   0  0  0  0  0  0  0  0  0  0  0  0
   -1.9412   -0.9801    1.9330 H   0  0  0  0  0  0  0  0  0  0  0  0
   -3.5397   -0.3979    1.4726 H   0  0  0  0  0  0  0  0  0  0  0  0
   -4.0060    0.3980   -0.8367 H   0  0  0  0  0  0  0  0  0  0  0  0
   -2.7564    0.3460   -2.0822 H   0  0  0  0  0  0  0  0  0  0  0  0
   -2.6639    1.5429   -0.7859 H   0  0  0  0  0  0  0  0  0  0  0  0
  1  2  1  0  0  0  0
  2  3  2  0  0  0  0
  3  4  1  0  0  0  0
  4  5  2  0  0  0  0
  4  6  1  0  0  0  0
  6  7  1  0  0  0  0
  6  8  1  0  0  0  0
  2  9  1  0  0  0  0
  8  9  1  0  0  0  0
  6 10  1  0  0  0  0
 10 11  1  0  0  0  0
 10 12  1  0  0  0  0
  1 13  1  0  0  0  0
  1 14  1  0  0  0  0
  1 15  1  0  0  0  0
  3 16  1  0  0  0  0
  8 17  1  0  0  0  0
  8 18  1  0  0  0  0
  9 19  1  0  0  0  0
  9 20  1  0  0  0  0
 10 21  1  0  0  0  0
 11 22  1  0  0  0  0
 11 23  1  0  0  0  0
 11 24  1  0  0  0  0
 12 25  1  0  0  0  0
 12 26  1  0  0  0  0
 12 27  1  0  0  0  0
M  END
