 xtb: 6.7.1 (edcfbbe)
          04062520053D

 27 27  0     0  0            999 V2000
   -2.6346    0.8692    1.4132 C   0  0  0  0  0  0  0  0  0  0  0  0
   -1.5961    0.4700    0.4166 C   0  0  0  0  0  0  0  0  0  0  0  0
   -0.8356    1.3120   -0.2701 C   0  0  0  0  0  0  0  0  0  0  0  0
    0.1618    0.7867   -1.2513 C   0  0  0  0  0  0  0  0  0  0  0  0
    0.9812   -0.3891   -0.6743 C   0  0  0  0  0  0  0  0  0  0  0  0
    1.3452   -0.9768   -1.5220 H   0  0  0  0  0  0  0  0  0  0  0  0
    0.1272   -1.3061    0.2296 C   0  0  0  0  0  0  0  0  0  0  0  0
   -1.3796   -1.0049    0.1735 C   0  0  0  0  0  0  0  0  0  0  0  0
   -1.8814   -1.5894    0.9626 H   0  0  0  0  0  0  0  0  0  0  0  0
   -1.9584   -1.3419   -1.0793 O   0  0  0  0  0  0  0  0  0  0  0  0
    2.1896    0.1045    0.0868 C   0  0  0  0  0  0  0  0  0  0  0  0
    3.3963   -0.3807   -0.1626 C   0  0  0  0  0  0  0  0  0  0  0  0
    1.9642    1.1579    1.1281 C   0  0  0  0  0  0  0  0  0  0  0  0
   -3.6071    0.4844    1.1088 H   0  0  0  0  0  0  0  0  0  0  0  0
   -2.6916    1.9510    1.4951 H   0  0  0  0  0  0  0  0  0  0  0  0
   -2.4011    0.4507    2.3921 H   0  0  0  0  0  0  0  0  0  0  0  0
   -0.9329    2.3811   -0.1527 H   0  0  0  0  0  0  0  0  0  0  0  0
   -0.3843    0.4208   -2.1247 H   0  0  0  0  0  0  0  0  0  0  0  0
    0.8398    1.5715   -1.5872 H   0  0  0  0  0  0  0  0  0  0  0  0
    0.2959   -2.3495   -0.0428 H   0  0  0  0  0  0  0  0  0  0  0  0
    0.4372   -1.1909    1.2693 H   0  0  0  0  0  0  0  0  0  0  0  0
   -1.7715   -2.2710   -1.2702 H   0  0  0  0  0  0  0  0  0  0  0  0
    4.2663   -0.0512    0.3804 H   0  0  0  0  0  0  0  0  0  0  0  0
    3.5672   -1.1270   -0.9203 H   0  0  0  0  0  0  0  0  0  0  0  0
    1.1036    0.9174    1.7479 H   0  0  0  0  0  0  0  0  0  0  0  0
    2.8415    1.2656    1.7603 H   0  0  0  0  0  0  0  0  0  0  0  0
    1.7646    2.1165    0.6522 H   0  0  0  0  0  0  0  0  0  0  0  0
  1  2  1  0  0  0  0
  2  3  2  0  0  0  0
  3  4  1  0  0  0  0
  4  5  1  0  0  0  0
  5  6  1  0  0  0  0
  5  7  1  0  0  0  0
  2  8  1  0  0  0  0
  7  8  1  0  0  0  0
  8  9  1  0  0  0  0
  8 10  1  0  0  0  0
  5 11  1  0  0  0  0
 11 12  2  0  0  0  0
 11 13  1  0  0  0  0
  1 14  1  0  0  0  0
  1 15  1  0  0  0  0
  1 16  1  0  0  0  0
  3 17  1  0  0  0  0
  4 18  1  0  0  0  0
  4 19  1  0  0  0  0
  7 20  1  0  0  0  0
  7 21  1  0  0  0  0
 10 22  1  0  0  0  0
 12 23  1  0  0  0  0
 12 24  1  0  0  0  0
 13 25  1  0  0  0  0
 13 26  1  0  0  0  0
 13 27  1  0  0  0  0
M  END
