 xtb: 6.7.1 (edcfbbe)
          04062505073D

 29 29  0     0  0            999 V2000
   -3.0704   -0.3737    1.0227 C   0  0  0  0  0  0  0  0  0  0  0  0
   -2.3039   -0.2531   -0.2936 C   0  0  0  0  0  0  0  0  0  0  0  0
   -3.0264   -0.3673   -1.1081 H   0  0  0  0  0  0  0  0  0  0  0  0
   -1.2493   -1.3496   -0.4497 C   0  0  0  0  0  0  0  0  0  0  0  0
   -0.1344   -1.2120    0.5797 C   0  0  0  0  0  0  0  0  0  0  0  0
    0.5467    0.1699    0.5124 C   0  0  0  0  0  0  0  0  0  0  0  0
    0.3904    0.6782    1.4731 H   0  0  0  0  0  0  0  0  0  0  0  0
   -0.1283    1.0876   -0.4832 C   0  0  0  0  0  0  0  0  0  0  0  0
    0.4916    1.8202   -1.2321 O   0  0  0  0  0  0  0  0  0  0  0  0
   -1.6336    1.1276   -0.4335 C   0  0  0  0  0  0  0  0  0  0  0  0
    2.0714    0.1201    0.2858 C   0  0  0  0  0  0  0  0  0  0  0  0
    2.7817   -0.5150    1.4792 C   0  0  0  0  0  0  0  0  0  0  0  0
    2.4503   -0.5879   -1.0138 C   0  0  0  0  0  0  0  0  0  0  0  0
   -3.4950   -1.3698    1.1216 H   0  0  0  0  0  0  0  0  0  0  0  0
   -2.4232   -0.1871    1.8750 H   0  0  0  0  0  0  0  0  0  0  0  0
   -3.8838    0.3473    1.0481 H   0  0  0  0  0  0  0  0  0  0  0  0
   -1.7199   -2.3287   -0.3485 H   0  0  0  0  0  0  0  0  0  0  0  0
   -0.8204   -1.2826   -1.4533 H   0  0  0  0  0  0  0  0  0  0  0  0
   -0.5376   -1.3826    1.5770 H   0  0  0  0  0  0  0  0  0  0  0  0
    0.6050   -1.9901    0.3977 H   0  0  0  0  0  0  0  0  0  0  0  0
   -1.8895    1.7527    0.4255 H   0  0  0  0  0  0  0  0  0  0  0  0
   -1.9783    1.6523   -1.3261 H   0  0  0  0  0  0  0  0  0  0  0  0
    2.4048    1.1612    0.1986 H   0  0  0  0  0  0  0  0  0  0  0  0
    3.8583   -0.4779    1.3332 H   0  0  0  0  0  0  0  0  0  0  0  0
    2.4908   -1.5554    1.5978 H   0  0  0  0  0  0  0  0  0  0  0  0
    2.5428    0.0172    2.3969 H   0  0  0  0  0  0  0  0  0  0  0  0
    1.9638   -0.1074   -1.8594 H   0  0  0  0  0  0  0  0  0  0  0  0
    2.1685   -1.6375   -0.9971 H   0  0  0  0  0  0  0  0  0  0  0  0
    3.5256   -0.5290   -1.1645 H   0  0  0  0  0  0  0  0  0  0  0  0
  1  2  1  0  0  0  0
  2  3  1  0  0  0  0
  2  4  1  0  0  0  0
  4  5  1  0  0  0  0
  5  6  1  0  0  0  0
  6  7  1  0  0  0  0
  6  8  1  0  0  0  0
  8  9  2  0  0  0  0
  2 10  1  0  0  0  0
  8 10  1  0  0  0  0
  6 11  1  0  0  0  0
 11 12  1  0  0  0  0
 11 13  1  0  0  0  0
  1 14  1  0  0  0  0
  1 15  1  0  0  0  0
  1 16  1  0  0  0  0
  4 17  1  0  0  0  0
  4 18  1  0  0  0  0
  5 19  1  0  0  0  0
  5 20  1  0  0  0  0
 10 21  1  0  0  0  0
 10 22  1  0  0  0  0
 11 23  1  0  0  0  0
 12 24  1  0  0  0  0
 12 25  1  0  0  0  0
 12 26  1  0  0  0  0
 13 27  1  0  0  0  0
 13 28  1  0  0  0  0
 13 29  1  0  0  0  0
M  END
