 xtb: 6.7.1 (edcfbbe)
          04062507063D

 24 24  0     0  0            999 V2000
   -3.8145   -0.6765    0.0130 C   0  0  0  0  0  0  0  0  0  0  0  0
   -2.6782    0.2261   -0.0036 N   0  0  0  0  0  0  0  0  0  0  0  0
   -2.8997    1.6579   -0.0123 C   0  0  0  0  0  0  0  0  0  0  0  0
   -1.4510   -0.3527    0.0012 C   0  0  0  0  0  0  0  0  0  0  0  0
   -1.3322   -1.5794    0.0131 O   0  0  0  0  0  0  0  0  0  0  0  0
   -0.3897    0.5177   -0.0096 N   0  0  0  0  0  0  0  0  0  0  0  0
    0.9767    0.2369   -0.0052 C   0  0  0  0  0  0  0  0  0  0  0  0
    1.4988   -1.0534    0.0076 C   0  0  0  0  0  0  0  0  0  0  0  0
    2.8688   -1.2446    0.0124 C   0  0  0  0  0  0  0  0  0  0  0  0
    3.7359   -0.1655    0.0044 C   0  0  0  0  0  0  0  0  0  0  0  0
    3.2202    1.1202   -0.0089 C   0  0  0  0  0  0  0  0  0  0  0  0
    1.8543    1.3224   -0.0137 C   0  0  0  0  0  0  0  0  0  0  0  0
   -3.7771   -1.3409   -0.8525 H   0  0  0  0  0  0  0  0  0  0  0  0
   -4.7359   -0.1054   -0.0047 H   0  0  0  0  0  0  0  0  0  0  0  0
   -3.7858   -1.3006    0.9086 H   0  0  0  0  0  0  0  0  0  0  0  0
   -2.4792    2.1288    0.8794 H   0  0  0  0  0  0  0  0  0  0  0  0
   -3.9699    1.8418   -0.0148 H   0  0  0  0  0  0  0  0  0  0  0  0
   -2.4775    2.1173   -0.9091 H   0  0  0  0  0  0  0  0  0  0  0  0
   -0.6043    1.5039   -0.0188 H   0  0  0  0  0  0  0  0  0  0  0  0
    0.8278   -1.8965    0.0141 H   0  0  0  0  0  0  0  0  0  0  0  0
    3.2582   -2.2516    0.0225 H   0  0  0  0  0  0  0  0  0  0  0  0
    4.8031   -0.3248    0.0083 H   0  0  0  0  0  0  0  0  0  0  0  0
    3.8854    1.9704   -0.0154 H   0  0  0  0  0  0  0  0  0  0  0  0
    1.4604    2.3282   -0.0238 H   0  0  0  0  0  0  0  0  0  0  0  0
  1  2  1  0  0  0  0
  2  3  1  0  0  0  0
  2  4  4  0  0  0  0
  4  5  2  0  0  0  0
  4  6  1  0  0  0  0
  6  7  1  0  0  0  0
  7  8  4  0  0  0  0
  8  9  4  0  0  0  0
  9 10  4  0  0  0  0
 10 11  4  0  0  0  0
  7 12  4  0  0  0  0
 11 12  4  0  0  0  0
  1 13  1  0  0  0  0
  1 14  1  0  0  0  0
  1 15  1  0  0  0  0
  3 16  1  0  0  0  0
  3 17  1  0  0  0  0
  3 18  1  0  0  0  0
  6 19  1  0  0  0  0
  8 20  1  0  0  0  0
  9 21  1  0  0  0  0
 10 22  1  0  0  0  0
 11 23  1  0  0  0  0
 12 24  1  0  0  0  0
M  END
