 xtb: 6.7.1 (edcfbbe)
          04062505073D

 29 29  0     0  0            999 V2000
   -3.5160    0.1381   -0.5478 C   0  0  0  0  0  0  0  0  0  0  0  0
   -2.0165   -0.1463   -0.5224 C   0  0  0  0  0  0  0  0  0  0  0  0
   -1.6942   -0.3822   -1.5419 H   0  0  0  0  0  0  0  0  0  0  0  0
   -1.6746   -1.3335    0.3725 C   0  0  0  0  0  0  0  0  0  0  0  0
   -0.2067   -1.6840    0.1731 C   0  0  0  0  0  0  0  0  0  0  0  0
    0.7328   -0.5378    0.5703 C   0  0  0  0  0  0  0  0  0  0  0  0
    1.0523   -0.6840    1.6092 H   0  0  0  0  0  0  0  0  0  0  0  0
    0.1174    0.8451    0.5553 C   0  0  0  0  0  0  0  0  0  0  0  0
    0.7189    1.7873    1.0460 O   0  0  0  0  0  0  0  0  0  0  0  0
   -1.2535    1.0790   -0.0248 C   0  0  0  0  0  0  0  0  0  0  0  0
    2.0209   -0.5553   -0.2983 C   0  0  0  0  0  0  0  0  0  0  0  0
    1.7823    0.0847   -1.6650 C   0  0  0  0  0  0  0  0  0  0  0  0
    3.1862    0.1303    0.4089 C   0  0  0  0  0  0  0  0  0  0  0  0
   -3.7291    1.0082   -1.1639 H   0  0  0  0  0  0  0  0  0  0  0  0
   -4.0560   -0.7127   -0.9554 H   0  0  0  0  0  0  0  0  0  0  0  0
   -3.8849    0.3284    0.4578 H   0  0  0  0  0  0  0  0  0  0  0  0
   -1.8672   -1.0780    1.4165 H   0  0  0  0  0  0  0  0  0  0  0  0
   -2.2950   -2.1920    0.1123 H   0  0  0  0  0  0  0  0  0  0  0  0
    0.0540   -2.5677    0.7575 H   0  0  0  0  0  0  0  0  0  0  0  0
   -0.0566   -1.9346   -0.8785 H   0  0  0  0  0  0  0  0  0  0  0  0
   -1.8241    1.5700    0.7705 H   0  0  0  0  0  0  0  0  0  0  0  0
   -1.1462    1.8248   -0.8168 H   0  0  0  0  0  0  0  0  0  0  0  0
    2.2827   -1.6089   -0.4461 H   0  0  0  0  0  0  0  0  0  0  0  0
    0.9186   -0.3510   -2.1606 H   0  0  0  0  0  0  0  0  0  0  0  0
    2.6511   -0.0614   -2.3021 H   0  0  0  0  0  0  0  0  0  0  0  0
    1.6167    1.1549   -1.5565 H   0  0  0  0  0  0  0  0  0  0  0  0
    3.4342   -0.3862    1.3334 H   0  0  0  0  0  0  0  0  0  0  0  0
    2.9302    1.1598    0.6491 H   0  0  0  0  0  0  0  0  0  0  0  0
    4.0647    0.1328   -0.2318 H   0  0  0  0  0  0  0  0  0  0  0  0
  1  2  1  0  0  0  0
  2  3  1  0  0  0  0
  2  4  1  0  0  0  0
  4  5  1  0  0  0  0
  5  6  1  0  0  0  0
  6  7  1  0  0  0  0
  6  8  1  0  0  0  0
  8  9  2  0  0  0  0
  2 10  1  0  0  0  0
  8 10  1  0  0  0  0
  6 11  1  0  0  0  0
 11 12  1  0  0  0  0
 11 13  1  0  0  0  0
  1 14  1  0  0  0  0
  1 15  1  0  0  0  0
  1 16  1  0  0  0  0
  4 17  1  0  0  0  0
  4 18  1  0  0  0  0
  5 19  1  0  0  0  0
  5 20  1  0  0  0  0
 10 21  1  0  0  0  0
 10 22  1  0  0  0  0
 11 23  1  0  0  0  0
 12 24  1  0  0  0  0
 12 25  1  0  0  0  0
 12 26  1  0  0  0  0
 13 27  1  0  0  0  0
 13 28  1  0  0  0  0
 13 29  1  0  0  0  0
M  END
