 xtb: 6.7.1 (edcfbbe)
          04062518003D

 24 24  0     0  0            999 V2000
   -2.4776   -0.8143   -0.2676 C   0  0  0  0  0  0  0  0  0  0  0  0
   -1.1555   -0.6082    0.4889 C   0  0  0  0  0  0  0  0  0  0  0  0
   -1.2548   -1.0229    1.5050 H   0  0  0  0  0  0  0  0  0  0  0  0
   -0.7600    0.8738    0.6562 C   0  0  0  0  0  0  0  0  0  0  0  0
   -1.6362    1.4955    0.4233 H   0  0  0  0  0  0  0  0  0  0  0  0
    0.3653    1.2621   -0.3259 C   0  0  0  0  0  0  0  0  0  0  0  0
    0.7098    2.2720   -0.0617 H   0  0  0  0  0  0  0  0  0  0  0  0
    1.5869    0.3284   -0.1860 C   0  0  0  0  0  0  0  0  0  0  0  0
    2.0369    0.2016   -1.1840 H   0  0  0  0  0  0  0  0  0  0  0  0
    1.1336   -1.0658    0.3054 C   0  0  0  0  0  0  0  0  0  0  0  0
    1.1227   -1.0636    1.4087 H   0  0  0  0  0  0  0  0  0  0  0  0
   -0.1513   -1.3424   -0.1932 O   0  0  0  0  0  0  0  0  0  0  0  0
    1.9969   -2.0721   -0.0980 O   0  0  0  0  0  0  0  0  0  0  0  0
    2.5040    0.9341    0.6874 O   0  0  0  0  0  0  0  0  0  0  0  0
   -0.1673    1.2343   -1.6252 O   0  0  0  0  0  0  0  0  0  0  0  0
   -0.3626    1.0457    1.9943 O   0  0  0  0  0  0  0  0  0  0  0  0
   -2.7438    0.1411   -1.2592 O   0  0  0  0  0  0  0  0  0  0  0  0
   -3.3101   -0.7513    0.4357 H   0  0  0  0  0  0  0  0  0  0  0  0
   -2.4457   -1.8239   -0.6986 H   0  0  0  0  0  0  0  0  0  0  0  0
    1.7277   -2.3797   -0.9776 H   0  0  0  0  0  0  0  0  0  0  0  0
    3.2444    0.3317    0.8480 H   0  0  0  0  0  0  0  0  0  0  0  0
    0.4157    1.7095   -2.2343 H   0  0  0  0  0  0  0  0  0  0  0  0
   -0.1688    1.9781    2.1681 H   0  0  0  0  0  0  0  0  0  0  0  0
   -1.9413    0.2847   -1.7879 H   0  0  0  0  0  0  0  0  0  0  0  0
  1  2  1  0  0  0  0
  2  3  1  0  0  0  0
  2  4  1  0  0  0  0
  4  5  1  0  0  0  0
  4  6  1  0  0  0  0
  6  7  1  0  0  0  0
  6  8  1  0  0  0  0
  8  9  1  0  0  0  0
  8 10  1  0  0  0  0
 10 11  1  0  0  0  0
  2 12  1  0  0  0  0
 10 12  1  0  0  0  0
 10 13  1  0  0  0  0
  8 14  1  0  0  0  0
  6 15  1  0  0  0  0
  4 16  1  0  0  0  0
  1 17  1  0  0  0  0
  1 18  1  0  0  0  0
  1 19  1  0  0  0  0
 13 20  1  0  0  0  0
 14 21  1  0  0  0  0
 15 22  1  0  0  0  0
 16 23  1  0  0  0  0
 17 24  1  0  0  0  0
M  END
