 xtb: 6.7.1 (edcfbbe)
          04062518003D

 24 24  0     0  0            999 V2000
   -2.5530   -0.7019   -0.3180 C   0  0  0  0  0  0  0  0  0  0  0  0
   -1.1687   -0.3161    0.2190 C   0  0  0  0  0  0  0  0  0  0  0  0
   -1.2066   -0.2641    1.3204 H   0  0  0  0  0  0  0  0  0  0  0  0
   -0.7100    1.0387   -0.3402 C   0  0  0  0  0  0  0  0  0  0  0  0
   -0.6987    0.9873   -1.4343 H   0  0  0  0  0  0  0  0  0  0  0  0
    0.7109    1.3357    0.1584 C   0  0  0  0  0  0  0  0  0  0  0  0
    0.6883    1.4641    1.2553 H   0  0  0  0  0  0  0  0  0  0  0  0
    1.6600    0.1732   -0.1592 C   0  0  0  0  0  0  0  0  0  0  0  0
    1.8143    0.1204   -1.2461 H   0  0  0  0  0  0  0  0  0  0  0  0
    1.0561   -1.1639    0.2949 C   0  0  0  0  0  0  0  0  0  0  0  0
    1.0639   -1.1805    1.4050 H   0  0  0  0  0  0  0  0  0  0  0  0
   -0.2659   -1.3374   -0.1676 O   0  0  0  0  0  0  0  0  0  0  0  0
    1.8210   -2.1791   -0.2330 O   0  0  0  0  0  0  0  0  0  0  0  0
    2.8809    0.3262    0.5142 O   0  0  0  0  0  0  0  0  0  0  0  0
    1.2387    2.4942   -0.4418 O   0  0  0  0  0  0  0  0  0  0  0  0
   -1.5840    2.0888   -0.0182 O   0  0  0  0  0  0  0  0  0  0  0  0
   -3.1445   -1.7429    0.4122 O   0  0  0  0  0  0  0  0  0  0  0  0
   -2.4481   -0.9686   -1.3756 H   0  0  0  0  0  0  0  0  0  0  0  0
   -3.2205    0.1569   -0.2281 H   0  0  0  0  0  0  0  0  0  0  0  0
    1.4346   -3.0404   -0.0078 H   0  0  0  0  0  0  0  0  0  0  0  0
    3.2889    1.1550    0.2193 H   0  0  0  0  0  0  0  0  0  0  0  0
    0.5444    3.1705   -0.4767 H   0  0  0  0  0  0  0  0  0  0  0  0
   -1.6975    2.1423    0.9430 H   0  0  0  0  0  0  0  0  0  0  0  0
   -2.6087   -2.5417    0.3077 H   0  0  0  0  0  0  0  0  0  0  0  0
  1  2  1  0  0  0  0
  2  3  1  0  0  0  0
  2  4  1  0  0  0  0
  4  5  1  0  0  0  0
  4  6  1  0  0  0  0
  6  7  1  0  0  0  0
  6  8  1  0  0  0  0
  8  9  1  0  0  0  0
  8 10  1  0  0  0  0
 10 11  1  0  0  0  0
  2 12  1  0  0  0  0
 10 12  1  0  0  0  0
 10 13  1  0  0  0  0
  8 14  1  0  0  0  0
  6 15  1  0  0  0  0
  4 16  1  0  0  0  0
  1 17  1  0  0  0  0
  1 18  1  0  0  0  0
  1 19  1  0  0  0  0
 13 20  1  0  0  0  0
 14 21  1  0  0  0  0
 15 22  1  0  0  0  0
 16 23  1  0  0  0  0
 17 24  1  0  0  0  0
M  END
