 xtb: 6.7.1 (edcfbbe)
          04062518003D

 24 24  0     0  0            999 V2000
   -2.5266   -0.9747    0.3326 C   0  0  0  0  0  0  0  0  0  0  0  0
   -1.1007   -0.4777    0.6180 C   0  0  0  0  0  0  0  0  0  0  0  0
   -0.9515   -0.4148    1.7063 H   0  0  0  0  0  0  0  0  0  0  0  0
   -0.8423    0.9167    0.0064 C   0  0  0  0  0  0  0  0  0  0  0  0
   -1.0626    0.8672   -1.0700 H   0  0  0  0  0  0  0  0  0  0  0  0
    0.6341    1.2828    0.2007 C   0  0  0  0  0  0  0  0  0  0  0  0
    0.8184    1.4246    1.2721 H   0  0  0  0  0  0  0  0  0  0  0  0
    1.5473    0.1582   -0.3186 C   0  0  0  0  0  0  0  0  0  0  0  0
    1.4169    0.0646   -1.4111 H   0  0  0  0  0  0  0  0  0  0  0  0
    1.1465   -1.1791    0.3299 C   0  0  0  0  0  0  0  0  0  0  0  0
    1.3197   -1.1136    1.4157 H   0  0  0  0  0  0  0  0  0  0  0  0
   -0.2170   -1.4356    0.0624 O   0  0  0  0  0  0  0  0  0  0  0  0
    1.8818   -2.2541   -0.1089 O   0  0  0  0  0  0  0  0  0  0  0  0
    2.8913    0.4241   -0.0175 O   0  0  0  0  0  0  0  0  0  0  0  0
    0.9871    2.5055   -0.3959 O   0  0  0  0  0  0  0  0  0  0  0  0
   -1.6176    1.9075    0.6329 O   0  0  0  0  0  0  0  0  0  0  0  0
   -2.8355   -0.9631   -1.0368 O   0  0  0  0  0  0  0  0  0  0  0  0
   -3.2447   -0.3159    0.8224 H   0  0  0  0  0  0  0  0  0  0  0  0
   -2.6253   -1.9824    0.7501 H   0  0  0  0  0  0  0  0  0  0  0  0
    1.7615   -2.3765   -1.0643 H   0  0  0  0  0  0  0  0  0  0  0  0
    3.0515    1.3716   -0.1614 H   0  0  0  0  0  0  0  0  0  0  0  0
    0.6232    2.5578   -1.2921 H   0  0  0  0  0  0  0  0  0  0  0  0
   -2.5236    1.8770    0.2954 H   0  0  0  0  0  0  0  0  0  0  0  0
   -2.2848   -1.6228   -1.4814 H   0  0  0  0  0  0  0  0  0  0  0  0
  1  2  1  0  0  0  0
  2  3  1  0  0  0  0
  2  4  1  0  0  0  0
  4  5  1  0  0  0  0
  4  6  1  0  0  0  0
  6  7  1  0  0  0  0
  6  8  1  0  0  0  0
  8  9  1  0  0  0  0
  8 10  1  0  0  0  0
 10 11  1  0  0  0  0
  2 12  1  0  0  0  0
 10 12  1  0  0  0  0
 10 13  1  0  0  0  0
  8 14  1  0  0  0  0
  6 15  1  0  0  0  0
  4 16  1  0  0  0  0
  1 17  1  0  0  0  0
  1 18  1  0  0  0  0
  1 19  1  0  0  0  0
 13 20  1  0  0  0  0
 14 21  1  0  0  0  0
 15 22  1  0  0  0  0
 16 23  1  0  0  0  0
 17 24  1  0  0  0  0
M  END
