 xtb: 6.7.1 (edcfbbe)
          04032521383D

 11 10  0     0  0            999 V2000
    0.4107    1.7143   -0.1556 C   0  0  0  0  0  0  0  0  0  0  0  0
    0.4485    0.2798    0.3299 C   0  0  0  0  0  0  0  0  0  0  0  0
    0.3066    0.2243    1.4110 H   0  0  0  0  0  0  0  0  0  0  0  0
   -0.5433   -0.6233   -0.3829 C   0  0  0  0  0  0  0  0  0  0  0  0
   -2.2140   -0.1689    0.0760 Cl  0  0  0  0  0  0  0  0  0  0  0  0
    2.0896   -0.4161    0.0221 Cl  0  0  0  0  0  0  0  0  0  0  0  0
    0.6188    1.7614   -1.2213 H   0  0  0  0  0  0  0  0  0  0  0  0
   -0.5786    2.1248    0.0305 H   0  0  0  0  0  0  0  0  0  0  0  0
    1.1458    2.3132    0.3738 H   0  0  0  0  0  0  0  0  0  0  0  0
   -0.4686   -0.5173   -1.4641 H   0  0  0  0  0  0  0  0  0  0  0  0
   -0.4123   -1.6649   -0.0943 H   0  0  0  0  0  0  0  0  0  0  0  0
  1  2  1  0  0  0  0
  2  3  1  0  0  0  0
  2  4  1  0  0  0  0
  4  5  1  0  0  0  0
  2  6  1  0  0  0  0
  1  7  1  0  0  0  0
  1  8  1  0  0  0  0
  1  9  1  0  0  0  0
  4 10  1  0  0  0  0
  4 11  1  0  0  0  0
M  END
