 xtb: 6.7.1 (edcfbbe)
          04062520053D

 27 27  0     0  0            999 V2000
   -3.4368    0.6343    0.0723 C   0  0  0  0  0  0  0  0  0  0  0  0
   -1.9417    0.5070    0.0621 C   0  0  0  0  0  0  0  0  0  0  0  0
   -1.1432    1.4900   -0.3316 C   0  0  0  0  0  0  0  0  0  0  0  0
    0.3501    1.4223   -0.3539 C   0  0  0  0  0  0  0  0  0  0  0  0
    0.8572   -0.0163   -0.2100 C   0  0  0  0  0  0  0  0  0  0  0  0
    0.6121   -0.5623   -1.1265 H   0  0  0  0  0  0  0  0  0  0  0  0
    0.0860   -0.6917    0.9259 C   0  0  0  0  0  0  0  0  0  0  0  0
   -1.3854   -0.8201    0.5339 C   0  0  0  0  0  0  0  0  0  0  0  0
   -1.9623   -1.1564    1.4131 H   0  0  0  0  0  0  0  0  0  0  0  0
   -1.4729   -1.8241   -0.4734 O   0  0  0  0  0  0  0  0  0  0  0  0
    2.3538   -0.0503   -0.0076 C   0  0  0  0  0  0  0  0  0  0  0  0
    2.9320    0.3571    1.1116 C   0  0  0  0  0  0  0  0  0  0  0  0
    3.1454   -0.5611   -1.1719 C   0  0  0  0  0  0  0  0  0  0  0  0
   -3.8229    0.4427    1.0729 H   0  0  0  0  0  0  0  0  0  0  0  0
   -3.8956   -0.0850   -0.6052 H   0  0  0  0  0  0  0  0  0  0  0  0
   -3.7376    1.6319   -0.2349 H   0  0  0  0  0  0  0  0  0  0  0  0
   -1.5715    2.4320   -0.6496 H   0  0  0  0  0  0  0  0  0  0  0  0
    0.7213    1.8591   -1.2842 H   0  0  0  0  0  0  0  0  0  0  0  0
    0.7439    2.0320    0.4659 H   0  0  0  0  0  0  0  0  0  0  0  0
    0.4875   -1.6889    1.1111 H   0  0  0  0  0  0  0  0  0  0  0  0
    0.1591   -0.1057    1.8416 H   0  0  0  0  0  0  0  0  0  0  0  0
   -2.3877   -1.8905   -0.7753 H   0  0  0  0  0  0  0  0  0  0  0  0
    4.0015    0.3352    1.2363 H   0  0  0  0  0  0  0  0  0  0  0  0
    2.3681    0.7259    1.9510 H   0  0  0  0  0  0  0  0  0  0  0  0
    2.8618   -1.5901   -1.3893 H   0  0  0  0  0  0  0  0  0  0  0  0
    2.9325    0.0350   -2.0583 H   0  0  0  0  0  0  0  0  0  0  0  0
    4.2124   -0.5247   -0.9699 H   0  0  0  0  0  0  0  0  0  0  0  0
  1  2  1  0  0  0  0
  2  3  2  0  0  0  0
  3  4  1  0  0  0  0
  4  5  1  0  0  0  0
  5  6  1  0  0  0  0
  5  7  1  0  0  0  0
  2  8  1  0  0  0  0
  7  8  1  0  0  0  0
  8  9  1  0  0  0  0
  8 10  1  0  0  0  0
  5 11  1  0  0  0  0
 11 12  2  0  0  0  0
 11 13  1  0  0  0  0
  1 14  1  0  0  0  0
  1 15  1  0  0  0  0
  1 16  1  0  0  0  0
  3 17  1  0  0  0  0
  4 18  1  0  0  0  0
  4 19  1  0  0  0  0
  7 20  1  0  0  0  0
  7 21  1  0  0  0  0
 10 22  1  0  0  0  0
 12 23  1  0  0  0  0
 12 24  1  0  0  0  0
 13 25  1  0  0  0  0
 13 26  1  0  0  0  0
 13 27  1  0  0  0  0
M  END
