 xtb: 6.7.1 (edcfbbe)
          04062518003D

 24 24  0     0  0            999 V2000
   -2.5583   -0.6788   -0.3228 C   0  0  0  0  0  0  0  0  0  0  0  0
   -1.1729   -0.3115    0.2215 C   0  0  0  0  0  0  0  0  0  0  0  0
   -1.2041   -0.3073    1.3235 H   0  0  0  0  0  0  0  0  0  0  0  0
   -0.7150    1.0646   -0.2848 C   0  0  0  0  0  0  0  0  0  0  0  0
   -0.7482    1.0689   -1.3802 H   0  0  0  0  0  0  0  0  0  0  0  0
    0.7331    1.3518    0.1567 C   0  0  0  0  0  0  0  0  0  0  0  0
    0.7651    1.4958    1.2499 H   0  0  0  0  0  0  0  0  0  0  0  0
    1.6561    0.1782   -0.1822 C   0  0  0  0  0  0  0  0  0  0  0  0
    1.7943    0.1564   -1.2735 H   0  0  0  0  0  0  0  0  0  0  0  0
    1.0297   -1.1553    0.2851 C   0  0  0  0  0  0  0  0  0  0  0  0
    1.0263   -1.1654    1.3891 H   0  0  0  0  0  0  0  0  0  0  0  0
   -0.2732   -1.3161   -0.2146 O   0  0  0  0  0  0  0  0  0  0  0  0
    1.7875   -2.2395   -0.1159 O   0  0  0  0  0  0  0  0  0  0  0  0
    2.8841    0.3774    0.4698 O   0  0  0  0  0  0  0  0  0  0  0  0
    1.2231    2.4990   -0.4910 O   0  0  0  0  0  0  0  0  0  0  0  0
   -1.5718    2.0997    0.1200 O   0  0  0  0  0  0  0  0  0  0  0  0
   -3.1123   -1.7878    0.3334 O   0  0  0  0  0  0  0  0  0  0  0  0
   -2.4688   -0.8624   -1.3999 H   0  0  0  0  0  0  0  0  0  0  0  0
   -3.2414    0.1556   -0.1562 H   0  0  0  0  0  0  0  0  0  0  0  0
    1.5850   -2.4464   -1.0423 H   0  0  0  0  0  0  0  0  0  0  0  0
    3.4557   -0.3889    0.3064 H   0  0  0  0  0  0  0  0  0  0  0  0
    0.5609    3.2039   -0.4122 H   0  0  0  0  0  0  0  0  0  0  0  0
   -1.6326    2.1205    1.0870 H   0  0  0  0  0  0  0  0  0  0  0  0
   -2.5299   -2.5495    0.2000 H   0  0  0  0  0  0  0  0  0  0  0  0
  1  2  1  0  0  0  0
  2  3  1  0  0  0  0
  2  4  1  0  0  0  0
  4  5  1  0  0  0  0
  4  6  1  0  0  0  0
  6  7  1  0  0  0  0
  6  8  1  0  0  0  0
  8  9  1  0  0  0  0
  8 10  1  0  0  0  0
 10 11  1  0  0  0  0
  2 12  1  0  0  0  0
 10 12  1  0  0  0  0
 10 13  1  0  0  0  0
  8 14  1  0  0  0  0
  6 15  1  0  0  0  0
  4 16  1  0  0  0  0
  1 17  1  0  0  0  0
  1 18  1  0  0  0  0
  1 19  1  0  0  0  0
 13 20  1  0  0  0  0
 14 21  1  0  0  0  0
 15 22  1  0  0  0  0
 16 23  1  0  0  0  0
 17 24  1  0  0  0  0
M  END
