 xtb: 6.7.1 (edcfbbe)
          04062501173D

 23 22  0     0  0            999 V2000
   -2.3205    0.2766    0.9473 C   0  0  0  0  0  0  0  0  0  0  0  0
   -1.7444    0.5235   -0.4427 C   0  0  0  0  0  0  0  0  0  0  0  0
   -0.5529   -0.3590   -0.8306 C   0  0  0  0  0  0  0  0  0  0  0  0
    0.7958   -0.1515   -0.1075 C   0  0  0  0  0  0  0  0  0  0  0  0
    1.8903   -0.7590   -0.9963 C   0  0  0  0  0  0  0  0  0  0  0  0
    1.1031    1.3331    0.0975 C   0  0  0  0  0  0  0  0  0  0  0  0
    0.8327   -0.8761    1.2412 C   0  0  0  0  0  0  0  0  0  0  0  0
   -3.2840    0.7735    1.0417 H   0  0  0  0  0  0  0  0  0  0  0  0
   -2.4665   -0.7875    1.1178 H   0  0  0  0  0  0  0  0  0  0  0  0
   -1.6697    0.6674    1.7244 H   0  0  0  0  0  0  0  0  0  0  0  0
   -2.5323    0.3235   -1.1744 H   0  0  0  0  0  0  0  0  0  0  0  0
   -1.4756    1.5756   -0.5431 H   0  0  0  0  0  0  0  0  0  0  0  0
   -0.3788   -0.1905   -1.8970 H   0  0  0  0  0  0  0  0  0  0  0  0
   -0.8449   -1.4059   -0.7151 H   0  0  0  0  0  0  0  0  0  0  0  0
    1.6747   -1.8045   -1.2058 H   0  0  0  0  0  0  0  0  0  0  0  0
    1.9587   -0.2266   -1.9425 H   0  0  0  0  0  0  0  0  0  0  0  0
    2.8580   -0.7021   -0.5029 H   0  0  0  0  0  0  0  0  0  0  0  0
    1.0280    1.8728   -0.8440 H   0  0  0  0  0  0  0  0  0  0  0  0
    2.1147    1.4533    0.4795 H   0  0  0  0  0  0  0  0  0  0  0  0
    0.4183    1.7810    0.8123 H   0  0  0  0  0  0  0  0  0  0  0  0
    1.8203   -0.7794    1.6880 H   0  0  0  0  0  0  0  0  0  0  0  0
    0.1079   -0.4663    1.9361 H   0  0  0  0  0  0  0  0  0  0  0  0
    0.6216   -1.9352    1.1100 H   0  0  0  0  0  0  0  0  0  0  0  0
  1  2  1  0  0  0  0
  2  3  1  0  0  0  0
  3  4  1  0  0  0  0
  4  5  1  0  0  0  0
  4  6  1  0  0  0  0
  4  7  1  0  0  0  0
  1  8  1  0  0  0  0
  1  9  1  0  0  0  0
  1 10  1  0  0  0  0
  2 11  1  0  0  0  0
  2 12  1  0  0  0  0
  3 13  1  0  0  0  0
  3 14  1  0  0  0  0
  5 15  1  0  0  0  0
  5 16  1  0  0  0  0
  5 17  1  0  0  0  0
  6 18  1  0  0  0  0
  6 19  1  0  0  0  0
  6 20  1  0  0  0  0
  7 21  1  0  0  0  0
  7 22  1  0  0  0  0
  7 23  1  0  0  0  0
M  END
