 xtb: 6.7.1 (edcfbbe)
          04062518003D

 24 24  0     0  0            999 V2000
   -2.2376   -1.1687    0.0489 C   0  0  0  0  0  0  0  0  0  0  0  0
   -0.8617   -0.5741    0.3903 C   0  0  0  0  0  0  0  0  0  0  0  0
   -0.7976   -0.3721    1.4707 H   0  0  0  0  0  0  0  0  0  0  0  0
   -0.6288    0.7493   -0.3501 C   0  0  0  0  0  0  0  0  0  0  0  0
   -0.7562    0.5762   -1.4317 H   0  0  0  0  0  0  0  0  0  0  0  0
    0.8051    1.2698   -0.1303 C   0  0  0  0  0  0  0  0  0  0  0  0
    0.7328    2.1187    0.5596 H   0  0  0  0  0  0  0  0  0  0  0  0
    1.7157    0.2036    0.5159 C   0  0  0  0  0  0  0  0  0  0  0  0
    2.7593    0.4602    0.2798 H   0  0  0  0  0  0  0  0  0  0  0  0
    1.4296   -1.1595   -0.1382 C   0  0  0  0  0  0  0  0  0  0  0  0
    2.0332   -1.9560    0.3195 H   0  0  0  0  0  0  0  0  0  0  0  0
    0.0894   -1.5699    0.0347 O   0  0  0  0  0  0  0  0  0  0  0  0
    1.7980   -1.1530   -1.4806 O   0  0  0  0  0  0  0  0  0  0  0  0
    1.5001    0.2065    1.9021 O   0  0  0  0  0  0  0  0  0  0  0  0
    1.3132    1.6544   -1.3879 O   0  0  0  0  0  0  0  0  0  0  0  0
   -1.5146    1.7467    0.0901 O   0  0  0  0  0  0  0  0  0  0  0  0
   -3.3024   -0.3722    0.5071 O   0  0  0  0  0  0  0  0  0  0  0  0
   -2.2810   -2.1835    0.4555 H   0  0  0  0  0  0  0  0  0  0  0  0
   -2.3397   -1.2313   -1.0372 H   0  0  0  0  0  0  0  0  0  0  0  0
    1.5006   -0.3308   -1.9113 H   0  0  0  0  0  0  0  0  0  0  0  0
    2.1442   -0.3681    2.3410 H   0  0  0  0  0  0  0  0  0  0  0  0
    2.0055    2.3223   -1.2865 H   0  0  0  0  0  0  0  0  0  0  0  0
   -2.4200    1.3856    0.0713 H   0  0  0  0  0  0  0  0  0  0  0  0
   -3.3839   -0.4584    1.4677 H   0  0  0  0  0  0  0  0  0  0  0  0
  1  2  1  0  0  0  0
  2  3  1  0  0  0  0
  2  4  1  0  0  0  0
  4  5  1  0  0  0  0
  4  6  1  0  0  0  0
  6  7  1  0  0  0  0
  6  8  1  0  0  0  0
  8  9  1  0  0  0  0
  8 10  1  0  0  0  0
 10 11  1  0  0  0  0
  2 12  1  0  0  0  0
 10 12  1  0  0  0  0
 10 13  1  0  0  0  0
  8 14  1  0  0  0  0
  6 15  1  0  0  0  0
  4 16  1  0  0  0  0
  1 17  1  0  0  0  0
  1 18  1  0  0  0  0
  1 19  1  0  0  0  0
 13 20  1  0  0  0  0
 14 21  1  0  0  0  0
 15 22  1  0  0  0  0
 16 23  1  0  0  0  0
 17 24  1  0  0  0  0
M  END
