 xtb: 6.7.1 (edcfbbe)
          04032521303D

 19 19  0     0  0            999 V2000
   -1.9097   -2.1867    0.0011 C   0  0  0  0  0  0  0  0  0  0  0  0
   -0.9099   -1.0696   -0.0012 C   0  0  0  0  0  0  0  0  0  0  0  0
    0.4517   -1.3229   -0.0015 C   0  0  0  0  0  0  0  0  0  0  0  0
    1.3790   -0.2854   -0.0012 C   0  0  0  0  0  0  0  0  0  0  0  0
    0.9256    1.0219   -0.0006 C   0  0  0  0  0  0  0  0  0  0  0  0
   -0.4396    1.2927    0.0001 C   0  0  0  0  0  0  0  0  0  0  0  0
   -1.3515    0.2488   -0.0002 C   0  0  0  0  0  0  0  0  0  0  0  0
   -0.8297    2.6002    0.0004 O   0  0  0  0  0  0  0  0  0  0  0  0
    2.8461   -0.5918    0.0013 C   0  0  0  0  0  0  0  0  0  0  0  0
   -2.5173   -2.1465    0.9038 H   0  0  0  0  0  0  0  0  0  0  0  0
   -2.5769   -2.0995   -0.8546 H   0  0  0  0  0  0  0  0  0  0  0  0
   -1.4123   -3.1515   -0.0404 H   0  0  0  0  0  0  0  0  0  0  0  0
    0.8048   -2.3440   -0.0020 H   0  0  0  0  0  0  0  0  0  0  0  0
    1.6145    1.8527   -0.0010 H   0  0  0  0  0  0  0  0  0  0  0  0
   -2.4127    0.4557   -0.0000 H   0  0  0  0  0  0  0  0  0  0  0  0
   -1.7965    2.6623    0.0024 H   0  0  0  0  0  0  0  0  0  0  0  0
    3.1035   -1.2123   -0.8551 H   0  0  0  0  0  0  0  0  0  0  0  0
    3.4332    0.3214   -0.0381 H   0  0  0  0  0  0  0  0  0  0  0  0
    3.1133   -1.1406    0.9030 H   0  0  0  0  0  0  0  0  0  0  0  0
  1  2  1  0  0  0  0
  2  3  4  0  0  0  0
  3  4  4  0  0  0  0
  4  5  4  0  0  0  0
  5  6  4  0  0  0  0
  2  7  4  0  0  0  0
  6  7  4  0  0  0  0
  6  8  1  0  0  0  0
  4  9  1  0  0  0  0
  1 10  1  0  0  0  0
  1 11  1  0  0  0  0
  1 12  1  0  0  0  0
  3 13  1  0  0  0  0
  5 14  1  0  0  0  0
  7 15  1  0  0  0  0
  8 16  1  0  0  0  0
  9 17  1  0  0  0  0
  9 18  1  0  0  0  0
  9 19  1  0  0  0  0
M  END
