 xtb: 6.7.1 (edcfbbe)
          04032521503D

 13 13  0     0  0            999 V2000
   -1.8163   -1.3585   -0.0004 C   0  0  0  0  0  0  0  0  0  0  0  0
   -0.4798   -1.7084    0.0005 C   0  0  0  0  0  0  0  0  0  0  0  0
    0.4993   -0.7286    0.0001 C   0  0  0  0  0  0  0  0  0  0  0  0
    0.1296    0.6112    0.0003 C   0  0  0  0  0  0  0  0  0  0  0  0
   -1.2043    0.9692    0.0008 C   0  0  0  0  0  0  0  0  0  0  0  0
   -2.1909   -0.0166    0.0006 C   0  0  0  0  0  0  0  0  0  0  0  0
   -3.4754    0.3856   -0.0005 O   0  0  0  0  0  0  0  0  0  0  0  0
    1.3426    1.8495   -0.0004 Cl  0  0  0  0  0  0  0  0  0  0  0  0
    2.1776   -1.1752    0.0000 Cl  0  0  0  0  0  0  0  0  0  0  0  0
   -2.5651   -2.1345   -0.0011 H   0  0  0  0  0  0  0  0  0  0  0  0
   -0.1868   -2.7451    0.0032 H   0  0  0  0  0  0  0  0  0  0  0  0
   -1.4954    2.0062   -0.0013 H   0  0  0  0  0  0  0  0  0  0  0  0
   -4.0842   -0.3709   -0.0023 H   0  0  0  0  0  0  0  0  0  0  0  0
  1  2  4  0  0  0  0
  2  3  4  0  0  0  0
  3  4  4  0  0  0  0
  4  5  4  0  0  0  0
  1  6  4  0  0  0  0
  5  6  4  0  0  0  0
  6  7  1  0  0  0  0
  4  8  1  0  0  0  0
  3  9  1  0  0  0  0
  1 10  1  0  0  0  0
  2 11  1  0  0  0  0
  5 12  1  0  0  0  0
  7 13  1  0  0  0  0
M  END
