 xtb: 6.7.1 (edcfbbe)
          04042520213D

 15 14  0     0  0            999 V2000
    1.6876    0.3885    0.6403 C   0  0  0  0  0  0  0  0  0  0  0  0
    0.8933    0.4090   -0.6616 C   0  0  0  0  0  0  0  0  0  0  0  0
   -0.5632   -0.0517   -0.4891 C   0  0  0  0  0  0  0  0  0  0  0  0
   -1.0563    0.0081   -1.4750 H   0  0  0  0  0  0  0  0  0  0  0  0
   -1.3420    0.8179    0.4929 C   0  0  0  0  0  0  0  0  0  0  0  0
   -0.6387   -1.3887   -0.0187 O   0  0  0  0  0  0  0  0  0  0  0  0
    1.3666    1.1866    1.3034 H   0  0  0  0  0  0  0  0  0  0  0  0
    2.7472    0.5187    0.4358 H   0  0  0  0  0  0  0  0  0  0  0  0
    1.5445   -0.5621    1.1493 H   0  0  0  0  0  0  0  0  0  0  0  0
    1.3769   -0.2497   -1.3878 H   0  0  0  0  0  0  0  0  0  0  0  0
    0.8878    1.4156   -1.0816 H   0  0  0  0  0  0  0  0  0  0  0  0
   -2.3853    0.5143    0.4988 H   0  0  0  0  0  0  0  0  0  0  0  0
   -0.9451    0.6880    1.4949 H   0  0  0  0  0  0  0  0  0  0  0  0
   -1.2735    1.8619    0.2038 H   0  0  0  0  0  0  0  0  0  0  0  0
   -0.1768   -1.9705   -0.6368 H   0  0  0  0  0  0  0  0  0  0  0  0
  1  2  1  0  0  0  0
  2  3  1  0  0  0  0
  3  4  1  0  0  0  0
  3  5  1  0  0  0  0
  3  6  1  0  0  0  0
  1  7  1  0  0  0  0
  1  8  1  0  0  0  0
  1  9  1  0  0  0  0
  2 10  1  0  0  0  0
  2 11  1  0  0  0  0
  5 12  1  0  0  0  0
  5 13  1  0  0  0  0
  5 14  1  0  0  0  0
  6 15  1  0  0  0  0
M  END
