 xtb: 6.7.1 (edcfbbe)
          04062518003D

 24 24  0     0  0            999 V2000
   -2.1223   -0.8966   -0.3472 C   0  0  0  0  0  0  0  0  0  0  0  0
   -1.2051   -0.3479    0.7648 C   0  0  0  0  0  0  0  0  0  0  0  0
   -1.7927   -0.4093    1.6897 H   0  0  0  0  0  0  0  0  0  0  0  0
   -0.7722    1.1191    0.5833 C   0  0  0  0  0  0  0  0  0  0  0  0
   -1.6304    1.6966    0.2112 H   0  0  0  0  0  0  0  0  0  0  0  0
    0.3887    1.3011   -0.4135 C   0  0  0  0  0  0  0  0  0  0  0  0
    0.8206    2.2927   -0.2188 H   0  0  0  0  0  0  0  0  0  0  0  0
    1.5143    0.2871   -0.1097 C   0  0  0  0  0  0  0  0  0  0  0  0
    2.1636    0.2139   -0.9888 H   0  0  0  0  0  0  0  0  0  0  0  0
    1.0255   -1.1413    0.2145 C   0  0  0  0  0  0  0  0  0  0  0  0
    1.8195   -1.6128    0.8101 H   0  0  0  0  0  0  0  0  0  0  0  0
   -0.0965   -1.1985    1.0553 O   0  0  0  0  0  0  0  0  0  0  0  0
    0.8211   -1.8550   -0.9760 O   0  0  0  0  0  0  0  0  0  0  0  0
    2.3180    0.7520    0.9477 O   0  0  0  0  0  0  0  0  0  0  0  0
   -0.0136    1.3316   -1.7502 O   0  0  0  0  0  0  0  0  0  0  0  0
   -0.3054    1.6466    1.8080 O   0  0  0  0  0  0  0  0  0  0  0  0
   -1.6011   -0.8590   -1.6533 O   0  0  0  0  0  0  0  0  0  0  0  0
   -3.0323   -0.2934   -0.3694 H   0  0  0  0  0  0  0  0  0  0  0  0
   -2.3865   -1.9262   -0.0776 H   0  0  0  0  0  0  0  0  0  0  0  0
    0.8704   -2.8085   -0.8075 H   0  0  0  0  0  0  0  0  0  0  0  0
    1.7375    1.0402    1.6727 H   0  0  0  0  0  0  0  0  0  0  0  0
   -0.6338    0.5896   -1.9309 H   0  0  0  0  0  0  0  0  0  0  0  0
   -1.0214    1.6724    2.4590 H   0  0  0  0  0  0  0  0  0  0  0  0
   -0.7774   -1.3929   -1.6750 H   0  0  0  0  0  0  0  0  0  0  0  0
  1  2  1  0  0  0  0
  2  3  1  0  0  0  0
  2  4  1  0  0  0  0
  4  5  1  0  0  0  0
  4  6  1  0  0  0  0
  6  7  1  0  0  0  0
  6  8  1  0  0  0  0
  8  9  1  0  0  0  0
  8 10  1  0  0  0  0
 10 11  1  0  0  0  0
  2 12  1  0  0  0  0
 10 12  1  0  0  0  0
 10 13  1  0  0  0  0
  8 14  1  0  0  0  0
  6 15  1  0  0  0  0
  4 16  1  0  0  0  0
  1 17  1  0  0  0  0
  1 18  1  0  0  0  0
  1 19  1  0  0  0  0
 13 20  1  0  0  0  0
 14 21  1  0  0  0  0
 15 22  1  0  0  0  0
 16 23  1  0  0  0  0
 17 24  1  0  0  0  0
M  END
