 xtb: 6.7.1 (edcfbbe)
          04062520053D

 27 27  0     0  0            999 V2000
   -2.7009    0.8449    1.3611 C   0  0  0  0  0  0  0  0  0  0  0  0
   -1.6135    0.4692    0.4077 C   0  0  0  0  0  0  0  0  0  0  0  0
   -0.8573    1.3403   -0.2480 C   0  0  0  0  0  0  0  0  0  0  0  0
    0.2022    0.8889   -1.2036 C   0  0  0  0  0  0  0  0  0  0  0  0
    0.9888   -0.3402   -0.6946 C   0  0  0  0  0  0  0  0  0  0  0  0
    1.3371   -0.8941   -1.5712 H   0  0  0  0  0  0  0  0  0  0  0  0
    0.1402   -1.2912    0.1808 C   0  0  0  0  0  0  0  0  0  0  0  0
   -1.3701   -1.0040    0.1748 C   0  0  0  0  0  0  0  0  0  0  0  0
   -1.8409   -1.5933    0.9703 H   0  0  0  0  0  0  0  0  0  0  0  0
   -2.0060   -1.4749   -1.0058 O   0  0  0  0  0  0  0  0  0  0  0  0
    2.2125    0.0895    0.0826 C   0  0  0  0  0  0  0  0  0  0  0  0
    3.4075   -0.4081   -0.1953 C   0  0  0  0  0  0  0  0  0  0  0  0
    2.0096    1.0946    1.1762 C   0  0  0  0  0  0  0  0  0  0  0  0
   -2.8093    1.9245    1.4206 H   0  0  0  0  0  0  0  0  0  0  0  0
   -2.4826    0.4548    2.3548 H   0  0  0  0  0  0  0  0  0  0  0  0
   -3.6438    0.4086    1.0338 H   0  0  0  0  0  0  0  0  0  0  0  0
   -0.9975    2.4038   -0.1193 H   0  0  0  0  0  0  0  0  0  0  0  0
   -0.2654    0.6379   -2.1610 H   0  0  0  0  0  0  0  0  0  0  0  0
    0.9020    1.7002   -1.4075 H   0  0  0  0  0  0  0  0  0  0  0  0
    0.2914   -2.3221   -0.1424 H   0  0  0  0  0  0  0  0  0  0  0  0
    0.4734   -1.2246    1.2174 H   0  0  0  0  0  0  0  0  0  0  0  0
   -1.6615   -0.9813   -1.7611 H   0  0  0  0  0  0  0  0  0  0  0  0
    4.2854   -0.1253    0.3611 H   0  0  0  0  0  0  0  0  0  0  0  0
    3.5603   -1.1190   -0.9899 H   0  0  0  0  0  0  0  0  0  0  0  0
    1.1064    0.8796    1.7420 H   0  0  0  0  0  0  0  0  0  0  0  0
    2.8614    1.1039    1.8508 H   0  0  0  0  0  0  0  0  0  0  0  0
    1.9008    2.0924    0.7536 H   0  0  0  0  0  0  0  0  0  0  0  0
  1  2  1  0  0  0  0
  2  3  2  0  0  0  0
  3  4  1  0  0  0  0
  4  5  1  0  0  0  0
  5  6  1  0  0  0  0
  5  7  1  0  0  0  0
  2  8  1  0  0  0  0
  7  8  1  0  0  0  0
  8  9  1  0  0  0  0
  8 10  1  0  0  0  0
  5 11  1  0  0  0  0
 11 12  2  0  0  0  0
 11 13  1  0  0  0  0
  1 14  1  0  0  0  0
  1 15  1  0  0  0  0
  1 16  1  0  0  0  0
  3 17  1  0  0  0  0
  4 18  1  0  0  0  0
  4 19  1  0  0  0  0
  7 20  1  0  0  0  0
  7 21  1  0  0  0  0
 10 22  1  0  0  0  0
 12 23  1  0  0  0  0
 12 24  1  0  0  0  0
 13 25  1  0  0  0  0
 13 26  1  0  0  0  0
 13 27  1  0  0  0  0
M  END
