 xtb: 6.7.1 (edcfbbe)
          04052509093D

 22 23  0     0  0            999 V2000
   -4.3828    0.5121    0.1690 C   0  0  0  0  0  0  0  0  0  0  0  0
   -3.5626    1.4969    0.6896 C   0  0  0  0  0  0  0  0  0  0  0  0
   -2.1851    1.3532    0.6401 C   0  0  0  0  0  0  0  0  0  0  0  0
   -1.5991    0.2213    0.0728 C   0  0  0  0  0  0  0  0  0  0  0  0
   -2.4332   -0.7724   -0.4332 C   0  0  0  0  0  0  0  0  0  0  0  0
   -3.8074   -0.6197   -0.3868 C   0  0  0  0  0  0  0  0  0  0  0  0
   -4.8226   -1.8691   -1.0353 Cl  0  0  0  0  0  0  0  0  0  0  0  0
   -0.1369    0.0424    0.0026 C   0  0  0  0  0  0  0  0  0  0  0  0
    0.4402   -1.1222    0.4993 C   0  0  0  0  0  0  0  0  0  0  0  0
    1.8118   -1.2959    0.4403 C   0  0  0  0  0  0  0  0  0  0  0  0
    2.6294   -0.3180   -0.1208 C   0  0  0  0  0  0  0  0  0  0  0  0
    2.0412    0.8376   -0.6285 C   0  0  0  0  0  0  0  0  0  0  0  0
    0.6709    1.0200   -0.5694 C   0  0  0  0  0  0  0  0  0  0  0  0
    3.0374    2.0560   -1.3398 Cl  0  0  0  0  0  0  0  0  0  0  0  0
    4.3414   -0.5354   -0.1885 Cl  0  0  0  0  0  0  0  0  0  0  0  0
    2.5227   -2.7375    1.0703 Cl  0  0  0  0  0  0  0  0  0  0  0  0
   -1.1936    2.5877    1.3541 Cl  0  0  0  0  0  0  0  0  0  0  0  0
   -5.4539    0.6210    0.2001 H   0  0  0  0  0  0  0  0  0  0  0  0
   -3.9911    2.3781    1.1372 H   0  0  0  0  0  0  0  0  0  0  0  0
   -1.9978   -1.6522   -0.8776 H   0  0  0  0  0  0  0  0  0  0  0  0
   -0.1727   -1.8863    0.9481 H   0  0  0  0  0  0  0  0  0  0  0  0
    0.2396    1.9165   -0.9829 H   0  0  0  0  0  0  0  0  0  0  0  0
  1  2  4  0  0  0  0
  2  3  4  0  0  0  0
  3  4  4  0  0  0  0
  4  5  4  0  0  0  0
  1  6  4  0  0  0  0
  5  6  4  0  0  0  0
  6  7  1  0  0  0  0
  4  8  1  0  0  0  0
  8  9  4  0  0  0  0
  9 10  4  0  0  0  0
 10 11  4  0  0  0  0
 11 12  4  0  0  0  0
  8 13  4  0  0  0  0
 12 13  4  0  0  0  0
 12 14  1  0  0  0  0
 11 15  1  0  0  0  0
 10 16  1  0  0  0  0
  3 17  1  0  0  0  0
  1 18  1  0  0  0  0
  2 19  1  0  0  0  0
  5 20  1  0  0  0  0
  9 21  1  0  0  0  0
 13 22  1  0  0  0  0
M  END
