 xtb: 6.7.1 (edcfbbe)
          04062518003D

 24 24  0     0  0            999 V2000
   -2.5527   -0.6705   -0.3609 C   0  0  0  0  0  0  0  0  0  0  0  0
   -1.1768   -0.3091    0.2098 C   0  0  0  0  0  0  0  0  0  0  0  0
   -1.2438   -0.2699    1.3100 H   0  0  0  0  0  0  0  0  0  0  0  0
   -0.7063    1.0616   -0.3198 C   0  0  0  0  0  0  0  0  0  0  0  0
   -0.6880    1.0359   -1.4144 H   0  0  0  0  0  0  0  0  0  0  0  0
    0.7162    1.3281    0.1900 C   0  0  0  0  0  0  0  0  0  0  0  0
    0.6848    1.4145    1.2929 H   0  0  0  0  0  0  0  0  0  0  0  0
    1.6377    0.1533   -0.1822 C   0  0  0  0  0  0  0  0  0  0  0  0
    1.7203    0.0878   -1.2722 H   0  0  0  0  0  0  0  0  0  0  0  0
    1.0334   -1.1645    0.3271 C   0  0  0  0  0  0  0  0  0  0  0  0
    0.9963   -1.1365    1.4410 H   0  0  0  0  0  0  0  0  0  0  0  0
   -0.2755   -1.3384   -0.1634 O   0  0  0  0  0  0  0  0  0  0  0  0
    1.8109   -2.2116   -0.1167 O   0  0  0  0  0  0  0  0  0  0  0  0
    2.9395    0.3807    0.2867 O   0  0  0  0  0  0  0  0  0  0  0  0
    1.1956    2.5298   -0.3557 O   0  0  0  0  0  0  0  0  0  0  0  0
   -1.6073    2.0790    0.0158 O   0  0  0  0  0  0  0  0  0  0  0  0
   -3.1617   -1.7320    0.3250 O   0  0  0  0  0  0  0  0  0  0  0  0
   -2.4353   -0.9011   -1.4255 H   0  0  0  0  0  0  0  0  0  0  0  0
   -3.2114    0.1924   -0.2501 H   0  0  0  0  0  0  0  0  0  0  0  0
    1.3393   -3.0509    0.0025 H   0  0  0  0  0  0  0  0  0  0  0  0
    2.9961    0.1987    1.2364 H   0  0  0  0  0  0  0  0  0  0  0  0
    2.1651    2.5238   -0.3055 H   0  0  0  0  0  0  0  0  0  0  0  0
   -1.5025    2.3273    0.9462 H   0  0  0  0  0  0  0  0  0  0  0  0
   -2.6347   -2.5326    0.1926 H   0  0  0  0  0  0  0  0  0  0  0  0
  1  2  1  0  0  0  0
  2  3  1  0  0  0  0
  2  4  1  0  0  0  0
  4  5  1  0  0  0  0
  4  6  1  0  0  0  0
  6  7  1  0  0  0  0
  6  8  1  0  0  0  0
  8  9  1  0  0  0  0
  8 10  1  0  0  0  0
 10 11  1  0  0  0  0
  2 12  1  0  0  0  0
 10 12  1  0  0  0  0
 10 13  1  0  0  0  0
  8 14  1  0  0  0  0
  6 15  1  0  0  0  0
  4 16  1  0  0  0  0
  1 17  1  0  0  0  0
  1 18  1  0  0  0  0
  1 19  1  0  0  0  0
 13 20  1  0  0  0  0
 14 21  1  0  0  0  0
 15 22  1  0  0  0  0
 16 23  1  0  0  0  0
 17 24  1  0  0  0  0
M  END
