 xtb: 6.7.1 (edcfbbe)
          04052508543D

 20 20  0     0  0            999 V2000
   -2.2738    0.3377   -1.1650 C   0  0  0  0  0  0  0  0  0  0  0  0
   -1.6488    0.2715    0.1427 N   0  0  0  0  0  0  0  0  0  0  0  0
   -2.2608   -0.7329    0.9922 C   0  0  0  0  0  0  0  0  0  0  0  0
   -0.2243    0.1247    0.0627 C   0  0  0  0  0  0  0  0  0  0  0  0
    0.3910   -0.9837   -0.5089 C   0  0  0  0  0  0  0  0  0  0  0  0
    1.7709   -1.0670   -0.5570 C   0  0  0  0  0  0  0  0  0  0  0  0
    2.5488   -0.0467   -0.0362 C   0  0  0  0  0  0  0  0  0  0  0  0
    1.9412    1.0590    0.5345 C   0  0  0  0  0  0  0  0  0  0  0  0
    0.5608    1.1445    0.5841 C   0  0  0  0  0  0  0  0  0  0  0  0
   -3.3189    0.6161   -1.0343 H   0  0  0  0  0  0  0  0  0  0  0  0
   -2.2332   -0.6127   -1.7182 H   0  0  0  0  0  0  0  0  0  0  0  0
   -1.7748    1.1058   -1.7531 H   0  0  0  0  0  0  0  0  0  0  0  0
   -1.7533   -0.7339    1.9553 H   0  0  0  0  0  0  0  0  0  0  0  0
   -2.2170   -1.7480    0.5692 H   0  0  0  0  0  0  0  0  0  0  0  0
   -3.3063   -0.4669    1.1438 H   0  0  0  0  0  0  0  0  0  0  0  0
   -0.2089   -1.7846   -0.9175 H   0  0  0  0  0  0  0  0  0  0  0  0
    2.2404   -1.9318   -1.0026 H   0  0  0  0  0  0  0  0  0  0  0  0
    3.6254   -0.1145   -0.0756 H   0  0  0  0  0  0  0  0  0  0  0  0
    2.5439    1.8569    0.9417 H   0  0  0  0  0  0  0  0  0  0  0  0
    0.0740    1.9997    1.0255 H   0  0  0  0  0  0  0  0  0  0  0  0
  1  2  1  0  0  0  0
  2  3  1  0  0  0  0
  2  4  1  0  0  0  0
  4  5  4  0  0  0  0
  5  6  4  0  0  0  0
  6  7  4  0  0  0  0
  7  8  4  0  0  0  0
  4  9  4  0  0  0  0
  8  9  4  0  0  0  0
  1 10  1  0  0  0  0
  1 11  1  0  0  0  0
  1 12  1  0  0  0  0
  3 13  1  0  0  0  0
  3 14  1  0  0  0  0
  3 15  1  0  0  0  0
  5 16  1  0  0  0  0
  6 17  1  0  0  0  0
  7 18  1  0  0  0  0
  8 19  1  0  0  0  0
  9 20  1  0  0  0  0
M  END
