 xtb: 6.7.1 (edcfbbe)
          04032521393D

  5  4  0     0  0            999 V2000
    0.0002    0.0005    0.5227 C   0  0  0  0  0  0  0  0  0  0  0  0
    0.3852   -1.8225   -0.0330 Br  0  0  0  0  0  0  0  0  0  0  0  0
    1.3864    1.2447   -0.0330 Br  0  0  0  0  0  0  0  0  0  0  0  0
   -1.7717    0.5778   -0.0330 Br  0  0  0  0  0  0  0  0  0  0  0  0
    0.0000   -0.0002    1.6159 H   0  0  0  0  0  0  0  0  0  0  0  0
  1  2  1  0  0  0  0
  1  3  1  0  0  0  0
  1  4  1  0  0  0  0
  1  5  1  0  0  0  0
M  END
