 xtb: 6.7.1 (edcfbbe)
          04062518003D

 24 24  0     0  0            999 V2000
   -1.7369   -1.3460   -0.5224 C   0  0  0  0  0  0  0  0  0  0  0  0
   -1.1384   -0.4815    0.6046 C   0  0  0  0  0  0  0  0  0  0  0  0
   -1.8552   -0.4070    1.4305 H   0  0  0  0  0  0  0  0  0  0  0  0
   -0.8491    0.9571    0.1331 C   0  0  0  0  0  0  0  0  0  0  0  0
   -1.1506    1.0635   -0.9202 H   0  0  0  0  0  0  0  0  0  0  0  0
    0.6505    1.2585    0.2236 C   0  0  0  0  0  0  0  0  0  0  0  0
    0.9379    1.3450    1.2835 H   0  0  0  0  0  0  0  0  0  0  0  0
    1.4273    0.0953   -0.3982 C   0  0  0  0  0  0  0  0  0  0  0  0
    1.0610   -0.0728   -1.4207 H   0  0  0  0  0  0  0  0  0  0  0  0
    1.1693   -1.1742    0.4346 C   0  0  0  0  0  0  0  0  0  0  0  0
    1.9667   -1.2638    1.1893 H   0  0  0  0  0  0  0  0  0  0  0  0
   -0.0088   -1.1057    1.1998 O   0  0  0  0  0  0  0  0  0  0  0  0
    1.1816   -2.2649   -0.4349 O   0  0  0  0  0  0  0  0  0  0  0  0
    2.7881    0.4444   -0.4098 O   0  0  0  0  0  0  0  0  0  0  0  0
    0.8938    2.4669   -0.4490 O   0  0  0  0  0  0  0  0  0  0  0  0
   -1.6004    1.8366    0.9339 O   0  0  0  0  0  0  0  0  0  0  0  0
   -2.8510   -0.7473   -1.1294 O   0  0  0  0  0  0  0  0  0  0  0  0
   -1.9903   -2.3301   -0.1090 H   0  0  0  0  0  0  0  0  0  0  0  0
   -0.9989   -1.4830   -1.3158 H   0  0  0  0  0  0  0  0  0  0  0  0
    1.1248   -3.0942    0.0638 H   0  0  0  0  0  0  0  0  0  0  0  0
    3.2918   -0.2069   -0.9178 H   0  0  0  0  0  0  0  0  0  0  0  0
    1.8529    2.5717   -0.5449 H   0  0  0  0  0  0  0  0  0  0  0  0
   -1.3982    2.7454    0.6664 H   0  0  0  0  0  0  0  0  0  0  0  0
   -3.5559   -0.6346   -0.4758 H   0  0  0  0  0  0  0  0  0  0  0  0
  1  2  1  0  0  0  0
  2  3  1  0  0  0  0
  2  4  1  0  0  0  0
  4  5  1  0  0  0  0
  4  6  1  0  0  0  0
  6  7  1  0  0  0  0
  6  8  1  0  0  0  0
  8  9  1  0  0  0  0
  8 10  1  0  0  0  0
 10 11  1  0  0  0  0
  2 12  1  0  0  0  0
 10 12  1  0  0  0  0
 10 13  1  0  0  0  0
  8 14  1  0  0  0  0
  6 15  1  0  0  0  0
  4 16  1  0  0  0  0
  1 17  1  0  0  0  0
  1 18  1  0  0  0  0
  1 19  1  0  0  0  0
 13 20  1  0  0  0  0
 14 21  1  0  0  0  0
 15 22  1  0  0  0  0
 16 23  1  0  0  0  0
 17 24  1  0  0  0  0
M  END
