 xtb: 6.7.1 (edcfbbe)
          04062518003D

 24 24  0     0  0            999 V2000
   -1.9320   -0.5607   -0.7742 C   0  0  0  0  0  0  0  0  0  0  0  0
   -1.2126   -0.0725    0.4972 C   0  0  0  0  0  0  0  0  0  0  0  0
   -1.9276   -0.0347    1.3282 H   0  0  0  0  0  0  0  0  0  0  0  0
   -0.6144    1.3338    0.3301 C   0  0  0  0  0  0  0  0  0  0  0  0
   -1.3465    1.9668   -0.1815 H   0  0  0  0  0  0  0  0  0  0  0  0
    0.6765    1.3133   -0.5123 C   0  0  0  0  0  0  0  0  0  0  0  0
    1.1517    2.3006   -0.3778 H   0  0  0  0  0  0  0  0  0  0  0  0
    1.6483    0.2437    0.0311 C   0  0  0  0  0  0  0  0  0  0  0  0
    2.4446    0.0648   -0.7038 H   0  0  0  0  0  0  0  0  0  0  0  0
    0.9460   -1.1101    0.2352 C   0  0  0  0  0  0  0  0  0  0  0  0
    1.5887   -1.7257    0.8897 H   0  0  0  0  0  0  0  0  0  0  0  0
   -0.2431   -1.0116    0.9610 O   0  0  0  0  0  0  0  0  0  0  0  0
    0.7963   -1.7072   -1.0146 O   0  0  0  0  0  0  0  0  0  0  0  0
    2.1757    0.6278    1.2790 O   0  0  0  0  0  0  0  0  0  0  0  0
    0.3343    1.1200   -1.8580 O   0  0  0  0  0  0  0  0  0  0  0  0
   -0.3810    1.9357    1.5787 O   0  0  0  0  0  0  0  0  0  0  0  0
   -2.2770   -1.9219   -0.6944 O   0  0  0  0  0  0  0  0  0  0  0  0
   -1.2751   -0.4633   -1.6390 H   0  0  0  0  0  0  0  0  0  0  0  0
   -2.8185    0.0657   -0.9317 H   0  0  0  0  0  0  0  0  0  0  0  0
    0.1807   -2.4539   -0.9432 H   0  0  0  0  0  0  0  0  0  0  0  0
    2.8314    1.3304    1.1587 H   0  0  0  0  0  0  0  0  0  0  0  0
    1.1318    1.1178   -2.4068 H   0  0  0  0  0  0  0  0  0  0  0  0
    0.2912    1.4145    2.0505 H   0  0  0  0  0  0  0  0  0  0  0  0
   -2.8652   -2.0622    0.0610 H   0  0  0  0  0  0  0  0  0  0  0  0
  1  2  1  0  0  0  0
  2  3  1  0  0  0  0
  2  4  1  0  0  0  0
  4  5  1  0  0  0  0
  4  6  1  0  0  0  0
  6  7  1  0  0  0  0
  6  8  1  0  0  0  0
  8  9  1  0  0  0  0
  8 10  1  0  0  0  0
 10 11  1  0  0  0  0
  2 12  1  0  0  0  0
 10 12  1  0  0  0  0
 10 13  1  0  0  0  0
  8 14  1  0  0  0  0
  6 15  1  0  0  0  0
  4 16  1  0  0  0  0
  1 17  1  0  0  0  0
  1 18  1  0  0  0  0
  1 19  1  0  0  0  0
 13 20  1  0  0  0  0
 14 21  1  0  0  0  0
 15 22  1  0  0  0  0
 16 23  1  0  0  0  0
 17 24  1  0  0  0  0
M  END
