 xtb: 6.7.1 (edcfbbe)
          04062518003D

 24 24  0     0  0            999 V2000
   -2.4555   -0.8423    0.0860 C   0  0  0  0  0  0  0  0  0  0  0  0
   -1.0464   -0.4989    0.5857 C   0  0  0  0  0  0  0  0  0  0  0  0
   -0.9586   -0.7605    1.6530 H   0  0  0  0  0  0  0  0  0  0  0  0
   -0.7413    1.0090    0.4471 C   0  0  0  0  0  0  0  0  0  0  0  0
   -1.5990    1.4922   -0.0346 H   0  0  0  0  0  0  0  0  0  0  0  0
    0.4859    1.2229   -0.4635 C   0  0  0  0  0  0  0  0  0  0  0  0
    0.7997    2.2763   -0.3818 H   0  0  0  0  0  0  0  0  0  0  0  0
    1.6534    0.3570    0.0474 C   0  0  0  0  0  0  0  0  0  0  0  0
    2.4763    0.3617   -0.6763 H   0  0  0  0  0  0  0  0  0  0  0  0
    1.1975   -1.1164    0.1951 C   0  0  0  0  0  0  0  0  0  0  0  0
    1.3299   -1.4107    1.2601 H   0  0  0  0  0  0  0  0  0  0  0  0
   -0.1517   -1.3013   -0.1612 O   0  0  0  0  0  0  0  0  0  0  0  0
    1.9667   -1.9026   -0.6401 O   0  0  0  0  0  0  0  0  0  0  0  0
    2.1804    0.8739    1.2397 O   0  0  0  0  0  0  0  0  0  0  0  0
    0.0962    0.9203   -1.7751 O   0  0  0  0  0  0  0  0  0  0  0  0
   -0.5098    1.5274    1.7397 O   0  0  0  0  0  0  0  0  0  0  0  0
   -2.7397   -0.2737   -1.1651 O   0  0  0  0  0  0  0  0  0  0  0  0
   -3.1981   -0.4450    0.7801 H   0  0  0  0  0  0  0  0  0  0  0  0
   -2.5423   -1.9355    0.0447 H   0  0  0  0  0  0  0  0  0  0  0  0
    1.5683   -2.7845   -0.7133 H   0  0  0  0  0  0  0  0  0  0  0  0
    1.4430    1.0683    1.8477 H   0  0  0  0  0  0  0  0  0  0  0  0
    0.8414    1.0428   -2.3797 H   0  0  0  0  0  0  0  0  0  0  0  0
   -0.7236    2.4707    1.7647 H   0  0  0  0  0  0  0  0  0  0  0  0
   -2.0031   -0.4638   -1.7656 H   0  0  0  0  0  0  0  0  0  0  0  0
  1  2  1  0  0  0  0
  2  3  1  0  0  0  0
  2  4  1  0  0  0  0
  4  5  1  0  0  0  0
  4  6  1  0  0  0  0
  6  7  1  0  0  0  0
  6  8  1  0  0  0  0
  8  9  1  0  0  0  0
  8 10  1  0  0  0  0
 10 11  1  0  0  0  0
  2 12  1  0  0  0  0
 10 12  1  0  0  0  0
 10 13  1  0  0  0  0
  8 14  1  0  0  0  0
  6 15  1  0  0  0  0
  4 16  1  0  0  0  0
  1 17  1  0  0  0  0
  1 18  1  0  0  0  0
  1 19  1  0  0  0  0
 13 20  1  0  0  0  0
 14 21  1  0  0  0  0
 15 22  1  0  0  0  0
 16 23  1  0  0  0  0
 17 24  1  0  0  0  0
M  END
