 xtb: 6.7.1 (edcfbbe)
          04062520053D

 27 27  0     0  0            999 V2000
   -2.6529    0.6656    1.1421 C   0  0  0  0  0  0  0  0  0  0  0  0
   -1.4737    0.4266    0.2483 C   0  0  0  0  0  0  0  0  0  0  0  0
   -0.7971    1.4063   -0.3332 C   0  0  0  0  0  0  0  0  0  0  0  0
    0.4019    1.1954   -1.2004 C   0  0  0  0  0  0  0  0  0  0  0  0
    1.1555   -0.0864   -0.8106 C   0  0  0  0  0  0  0  0  0  0  0  0
    1.8658   -0.3142   -1.6140 H   0  0  0  0  0  0  0  0  0  0  0  0
    0.1694   -1.2583   -0.7574 C   0  0  0  0  0  0  0  0  0  0  0  0
   -1.1167   -1.0314    0.0572 C   0  0  0  0  0  0  0  0  0  0  0  0
   -1.0300   -1.5033    1.0443 H   0  0  0  0  0  0  0  0  0  0  0  0
   -2.2069   -1.7369   -0.5312 O   0  0  0  0  0  0  0  0  0  0  0  0
    1.9793    0.1464    0.4358 C   0  0  0  0  0  0  0  0  0  0  0  0
    1.5475   -0.0156    1.6757 C   0  0  0  0  0  0  0  0  0  0  0  0
    3.3788    0.6141    0.1576 C   0  0  0  0  0  0  0  0  0  0  0  0
   -3.4569   -0.0243    0.8913 H   0  0  0  0  0  0  0  0  0  0  0  0
   -3.0102    1.6877    1.0540 H   0  0  0  0  0  0  0  0  0  0  0  0
   -2.3736    0.4821    2.1799 H   0  0  0  0  0  0  0  0  0  0  0  0
   -1.1057    2.4317   -0.1800 H   0  0  0  0  0  0  0  0  0  0  0  0
    0.0862    1.1226   -2.2462 H   0  0  0  0  0  0  0  0  0  0  0  0
    1.0647    2.0589   -1.1212 H   0  0  0  0  0  0  0  0  0  0  0  0
   -0.1361   -1.4700   -1.7859 H   0  0  0  0  0  0  0  0  0  0  0  0
    0.6783   -2.1475   -0.3822 H   0  0  0  0  0  0  0  0  0  0  0  0
   -2.3862   -1.3570   -1.4026 H   0  0  0  0  0  0  0  0  0  0  0  0
    2.1887    0.1871    2.5180 H   0  0  0  0  0  0  0  0  0  0  0  0
    0.5549   -0.3470    1.9125 H   0  0  0  0  0  0  0  0  0  0  0  0
    3.3683    1.4742   -0.5098 H   0  0  0  0  0  0  0  0  0  0  0  0
    3.8894    0.8891    1.0761 H   0  0  0  0  0  0  0  0  0  0  0  0
    3.9453   -0.1778   -0.3316 H   0  0  0  0  0  0  0  0  0  0  0  0
  1  2  1  0  0  0  0
  2  3  2  0  0  0  0
  3  4  1  0  0  0  0
  4  5  1  0  0  0  0
  5  6  1  0  0  0  0
  5  7  1  0  0  0  0
  2  8  1  0  0  0  0
  7  8  1  0  0  0  0
  8  9  1  0  0  0  0
  8 10  1  0  0  0  0
  5 11  1  0  0  0  0
 11 12  2  0  0  0  0
 11 13  1  0  0  0  0
  1 14  1  0  0  0  0
  1 15  1  0  0  0  0
  1 16  1  0  0  0  0
  3 17  1  0  0  0  0
  4 18  1  0  0  0  0
  4 19  1  0  0  0  0
  7 20  1  0  0  0  0
  7 21  1  0  0  0  0
 10 22  1  0  0  0  0
 12 23  1  0  0  0  0
 12 24  1  0  0  0  0
 13 25  1  0  0  0  0
 13 26  1  0  0  0  0
 13 27  1  0  0  0  0
M  END
