 xtb: 6.7.1 (edcfbbe)
          04052503093D

 19 19  0     0  0            999 V2000
   -3.7817   -0.3628   -0.7228 C   0  0  0  0  0  0  0  0  0  0  0  0
   -2.3496   -0.3851   -0.7038 O   0  0  0  0  0  0  0  0  0  0  0  0
   -1.7216    0.2171    0.2959 C   0  0  0  0  0  0  0  0  0  0  0  0
   -2.2863    0.7954    1.2015 O   0  0  0  0  0  0  0  0  0  0  0  0
   -0.2417    0.0997    0.1557 C   0  0  0  0  0  0  0  0  0  0  0  0
    0.4732    1.0726   -0.5299 C   0  0  0  0  0  0  0  0  0  0  0  0
    1.8466    0.9728   -0.6497 C   0  0  0  0  0  0  0  0  0  0  0  0
    2.5214   -0.1045   -0.0830 C   0  0  0  0  0  0  0  0  0  0  0  0
    1.8011   -1.0798    0.6049 C   0  0  0  0  0  0  0  0  0  0  0  0
    0.4304   -0.9775    0.7225 C   0  0  0  0  0  0  0  0  0  0  0  0
    3.8630   -0.2505   -0.1711 O   0  0  0  0  0  0  0  0  0  0  0  0
   -4.1460    0.5397   -0.2306 H   0  0  0  0  0  0  0  0  0  0  0  0
   -4.1595   -1.2417   -0.2008 H   0  0  0  0  0  0  0  0  0  0  0  0
   -4.0701   -0.3859   -1.7697 H   0  0  0  0  0  0  0  0  0  0  0  0
   -0.0463    1.9106   -0.9684 H   0  0  0  0  0  0  0  0  0  0  0  0
    2.3924    1.7350   -1.1849 H   0  0  0  0  0  0  0  0  0  0  0  0
    2.3365   -1.9086    1.0389 H   0  0  0  0  0  0  0  0  0  0  0  0
   -0.1224   -1.7336    1.2580 H   0  0  0  0  0  0  0  0  0  0  0  0
    4.2618    0.4814   -0.6672 H   0  0  0  0  0  0  0  0  0  0  0  0
  1  2  1  0  0  0  0
  2  3  1  0  0  0  0
  3  4  2  0  0  0  0
  3  5  1  0  0  0  0
  5  6  4  0  0  0  0
  6  7  4  0  0  0  0
  7  8  4  0  0  0  0
  8  9  4  0  0  0  0
  5 10  4  0  0  0  0
  9 10  4  0  0  0  0
  8 11  1  0  0  0  0
  1 12  1  0  0  0  0
  1 13  1  0  0  0  0
  1 14  1  0  0  0  0
  6 15  1  0  0  0  0
  7 16  1  0  0  0  0
  9 17  1  0  0  0  0
 10 18  1  0  0  0  0
 11 19  1  0  0  0  0
M  END
