 xtb: 6.7.1 (edcfbbe)
          04042516023D

 14 13  0     0  0            999 V2000
   -2.4902    0.0423    0.1418 C   0  0  0  0  0  0  0  0  0  0  0  0
   -1.2260   -0.7628   -0.1288 C   0  0  0  0  0  0  0  0  0  0  0  0
    0.0170    0.0859   -0.0531 C   0  0  0  0  0  0  0  0  0  0  0  0
    0.0431    1.2978   -0.0689 O   0  0  0  0  0  0  0  0  0  0  0  0
    1.1060   -0.6751    0.0240 O   0  0  0  0  0  0  0  0  0  0  0  0
    2.3917   -0.0476    0.0730 C   0  0  0  0  0  0  0  0  0  0  0  0
   -2.4839    0.4283    1.1576 H   0  0  0  0  0  0  0  0  0  0  0  0
   -2.5465    0.8887   -0.5381 H   0  0  0  0  0  0  0  0  0  0  0  0
   -3.3682   -0.5819    0.0072 H   0  0  0  0  0  0  0  0  0  0  0  0
   -1.2565   -1.1892   -1.1341 H   0  0  0  0  0  0  0  0  0  0  0  0
   -1.1171   -1.5885    0.5746 H   0  0  0  0  0  0  0  0  0  0  0  0
    2.2732    1.0293    0.1975 H   0  0  0  0  0  0  0  0  0  0  0  0
    2.9122   -0.2647   -0.8586 H   0  0  0  0  0  0  0  0  0  0  0  0
    2.9279   -0.4773    0.9161 H   0  0  0  0  0  0  0  0  0  0  0  0
  1  2  1  0  0  0  0
  2  3  1  0  0  0  0
  3  4  2  0  0  0  0
  3  5  1  0  0  0  0
  5  6  1  0  0  0  0
  1  7  1  0  0  0  0
  1  8  1  0  0  0  0
  1  9  1  0  0  0  0
  2 10  1  0  0  0  0
  2 11  1  0  0  0  0
  6 12  1  0  0  0  0
  6 13  1  0  0  0  0
  6 14  1  0  0  0  0
M  END
