 xtb: 6.7.1 (edcfbbe)
          04062518003D

 24 24  0     0  0            999 V2000
   -1.7462   -1.0153   -0.7358 C   0  0  0  0  0  0  0  0  0  0  0  0
   -1.0599   -0.4948    0.5344 C   0  0  0  0  0  0  0  0  0  0  0  0
   -1.7675   -0.6248    1.3626 H   0  0  0  0  0  0  0  0  0  0  0  0
   -0.7190    0.9986    0.4158 C   0  0  0  0  0  0  0  0  0  0  0  0
   -1.5695    1.4942   -0.0711 H   0  0  0  0  0  0  0  0  0  0  0  0
    0.5313    1.2442   -0.4458 C   0  0  0  0  0  0  0  0  0  0  0  0
    0.8421    2.2858   -0.2601 H   0  0  0  0  0  0  0  0  0  0  0  0
    1.6839    0.3415    0.0316 C   0  0  0  0  0  0  0  0  0  0  0  0
    2.4914    0.3488   -0.7094 H   0  0  0  0  0  0  0  0  0  0  0  0
    1.2401   -1.1281    0.1822 C   0  0  0  0  0  0  0  0  0  0  0  0
    1.9956   -1.6383    0.8009 H   0  0  0  0  0  0  0  0  0  0  0  0
    0.0566   -1.2832    0.9250 O   0  0  0  0  0  0  0  0  0  0  0  0
    1.1627   -1.6940   -1.0885 O   0  0  0  0  0  0  0  0  0  0  0  0
    2.2411    0.8230    1.2260 O   0  0  0  0  0  0  0  0  0  0  0  0
    0.1965    1.0615   -1.7947 O   0  0  0  0  0  0  0  0  0  0  0  0
   -0.4495    1.5719    1.6770 O   0  0  0  0  0  0  0  0  0  0  0  0
   -3.0201   -0.4101   -0.8003 O   0  0  0  0  0  0  0  0  0  0  0  0
   -1.8408   -2.1057   -0.6489 H   0  0  0  0  0  0  0  0  0  0  0  0
   -1.1418   -0.7660   -1.6120 H   0  0  0  0  0  0  0  0  0  0  0  0
    1.0470   -2.6534   -1.0193 H   0  0  0  0  0  0  0  0  0  0  0  0
    1.5178    1.0286    1.8440 H   0  0  0  0  0  0  0  0  0  0  0  0
    0.9599    1.2701   -2.3517 H   0  0  0  0  0  0  0  0  0  0  0  0
   -1.2444    1.5395    2.2279 H   0  0  0  0  0  0  0  0  0  0  0  0
   -3.4312   -0.6334   -1.6466 H   0  0  0  0  0  0  0  0  0  0  0  0
  1  2  1  0  0  0  0
  2  3  1  0  0  0  0
  2  4  1  0  0  0  0
  4  5  1  0  0  0  0
  4  6  1  0  0  0  0
  6  7  1  0  0  0  0
  6  8  1  0  0  0  0
  8  9  1  0  0  0  0
  8 10  1  0  0  0  0
 10 11  1  0  0  0  0
  2 12  1  0  0  0  0
 10 12  1  0  0  0  0
 10 13  1  0  0  0  0
  8 14  1  0  0  0  0
  6 15  1  0  0  0  0
  4 16  1  0  0  0  0
  1 17  1  0  0  0  0
  1 18  1  0  0  0  0
  1 19  1  0  0  0  0
 13 20  1  0  0  0  0
 14 21  1  0  0  0  0
 15 22  1  0  0  0  0
 16 23  1  0  0  0  0
 17 24  1  0  0  0  0
M  END
