 xtb: 6.7.1 (edcfbbe)
          04062505073D

 29 29  0     0  0            999 V2000
   -3.0136    0.4954    0.7064 C   0  0  0  0  0  0  0  0  0  0  0  0
   -2.2794   -0.4398   -0.2542 C   0  0  0  0  0  0  0  0  0  0  0  0
   -3.0301   -0.9336   -0.8784 H   0  0  0  0  0  0  0  0  0  0  0  0
   -1.4701   -1.5059    0.5134 C   0  0  0  0  0  0  0  0  0  0  0  0
    0.0279   -1.4383    0.2197 C   0  0  0  0  0  0  0  0  0  0  0  0
    0.5419   -0.0174    0.4317 C   0  0  0  0  0  0  0  0  0  0  0  0
    0.2980    0.2866    1.4588 H   0  0  0  0  0  0  0  0  0  0  0  0
   -0.1989    0.9580   -0.4557 C   0  0  0  0  0  0  0  0  0  0  0  0
    0.1329    2.1245   -0.5653 O   0  0  0  0  0  0  0  0  0  0  0  0
   -1.3780    0.3830   -1.1862 C   0  0  0  0  0  0  0  0  0  0  0  0
    2.0664    0.1714    0.2685 C   0  0  0  0  0  0  0  0  0  0  0  0
    2.8449   -0.5233    1.3824 C   0  0  0  0  0  0  0  0  0  0  0  0
    2.5558   -0.2980   -1.1002 C   0  0  0  0  0  0  0  0  0  0  0  0
   -3.6193    1.2116    0.1555 H   0  0  0  0  0  0  0  0  0  0  0  0
   -3.6685   -0.0719    1.3631 H   0  0  0  0  0  0  0  0  0  0  0  0
   -2.3048    1.0525    1.3162 H   0  0  0  0  0  0  0  0  0  0  0  0
   -1.6203   -1.3639    1.5849 H   0  0  0  0  0  0  0  0  0  0  0  0
   -1.8345   -2.5029    0.2644 H   0  0  0  0  0  0  0  0  0  0  0  0
    0.5514   -2.1219    0.8880 H   0  0  0  0  0  0  0  0  0  0  0  0
    0.2204   -1.7585   -0.8037 H   0  0  0  0  0  0  0  0  0  0  0  0
   -1.9416    1.1920   -1.6537 H   0  0  0  0  0  0  0  0  0  0  0  0
   -0.9860   -0.2587   -1.9783 H   0  0  0  0  0  0  0  0  0  0  0  0
    2.2460    1.2511    0.3399 H   0  0  0  0  0  0  0  0  0  0  0  0
    3.9023   -0.2859    1.2962 H   0  0  0  0  0  0  0  0  0  0  0  0
    2.7346   -1.6026    1.3176 H   0  0  0  0  0  0  0  0  0  0  0  0
    2.4996   -0.1945    2.3595 H   0  0  0  0  0  0  0  0  0  0  0  0
    1.9904    0.1858   -1.8945 H   0  0  0  0  0  0  0  0  0  0  0  0
    2.4602   -1.3757   -1.2009 H   0  0  0  0  0  0  0  0  0  0  0  0
    3.6042   -0.0380   -1.2250 H   0  0  0  0  0  0  0  0  0  0  0  0
  1  2  1  0  0  0  0
  2  3  1  0  0  0  0
  2  4  1  0  0  0  0
  4  5  1  0  0  0  0
  5  6  1  0  0  0  0
  6  7  1  0  0  0  0
  6  8  1  0  0  0  0
  8  9  2  0  0  0  0
  2 10  1  0  0  0  0
  8 10  1  0  0  0  0
  6 11  1  0  0  0  0
 11 12  1  0  0  0  0
 11 13  1  0  0  0  0
  1 14  1  0  0  0  0
  1 15  1  0  0  0  0
  1 16  1  0  0  0  0
  4 17  1  0  0  0  0
  4 18  1  0  0  0  0
  5 19  1  0  0  0  0
  5 20  1  0  0  0  0
 10 21  1  0  0  0  0
 10 22  1  0  0  0  0
 11 23  1  0  0  0  0
 12 24  1  0  0  0  0
 12 25  1  0  0  0  0
 12 26  1  0  0  0  0
 13 27  1  0  0  0  0
 13 28  1  0  0  0  0
 13 29  1  0  0  0  0
M  END
