 xtb: 6.7.1 (edcfbbe)
          04062518003D

 24 24  0     0  0            999 V2000
   -2.3080   -1.0158   -0.2202 C   0  0  0  0  0  0  0  0  0  0  0  0
   -0.9112   -0.5362    0.1895 C   0  0  0  0  0  0  0  0  0  0  0  0
   -0.8144   -0.6488    1.2806 H   0  0  0  0  0  0  0  0  0  0  0  0
   -0.6967    0.9477   -0.1743 C   0  0  0  0  0  0  0  0  0  0  0  0
   -1.1744    1.1621   -1.1371 H   0  0  0  0  0  0  0  0  0  0  0  0
    0.8086    1.2520   -0.3447 C   0  0  0  0  0  0  0  0  0  0  0  0
    0.9762    2.2697    0.0290 H   0  0  0  0  0  0  0  0  0  0  0  0
    1.6348    0.2690    0.5026 C   0  0  0  0  0  0  0  0  0  0  0  0
    2.7050    0.4572    0.3413 H   0  0  0  0  0  0  0  0  0  0  0  0
    1.3643   -1.1761    0.0034 C   0  0  0  0  0  0  0  0  0  0  0  0
    1.5595   -1.8845    0.8273 H   0  0  0  0  0  0  0  0  0  0  0  0
    0.0429   -1.3518   -0.4624 O   0  0  0  0  0  0  0  0  0  0  0  0
    2.2281   -1.5224   -1.0200 O   0  0  0  0  0  0  0  0  0  0  0  0
    1.2814    0.4692    1.8486 O   0  0  0  0  0  0  0  0  0  0  0  0
    1.1474    1.1406   -1.7061 O   0  0  0  0  0  0  0  0  0  0  0  0
   -1.3087    1.7937    0.7640 O   0  0  0  0  0  0  0  0  0  0  0  0
   -3.3162   -0.4208    0.5549 O   0  0  0  0  0  0  0  0  0  0  0  0
   -2.3796   -2.0927   -0.0544 H   0  0  0  0  0  0  0  0  0  0  0  0
   -2.4574   -0.8167   -1.2896 H   0  0  0  0  0  0  0  0  0  0  0  0
    1.9331   -1.0677   -1.8281 H   0  0  0  0  0  0  0  0  0  0  0  0
    1.9207    0.0369    2.4322 H   0  0  0  0  0  0  0  0  0  0  0  0
    1.8930    1.7216   -1.9120 H   0  0  0  0  0  0  0  0  0  0  0  0
   -0.8647    1.6869    1.6197 H   0  0  0  0  0  0  0  0  0  0  0  0
   -3.1964    0.5426    0.5443 H   0  0  0  0  0  0  0  0  0  0  0  0
  1  2  1  0  0  0  0
  2  3  1  0  0  0  0
  2  4  1  0  0  0  0
  4  5  1  0  0  0  0
  4  6  1  0  0  0  0
  6  7  1  0  0  0  0
  6  8  1  0  0  0  0
  8  9  1  0  0  0  0
  8 10  1  0  0  0  0
 10 11  1  0  0  0  0
  2 12  1  0  0  0  0
 10 12  1  0  0  0  0
 10 13  1  0  0  0  0
  8 14  1  0  0  0  0
  6 15  1  0  0  0  0
  4 16  1  0  0  0  0
  1 17  1  0  0  0  0
  1 18  1  0  0  0  0
  1 19  1  0  0  0  0
 13 20  1  0  0  0  0
 14 21  1  0  0  0  0
 15 22  1  0  0  0  0
 16 23  1  0  0  0  0
 17 24  1  0  0  0  0
M  END
