 xtb: 6.7.1 (edcfbbe)
          04042519553D

 16 16  0     0  0            999 V2000
   -2.7523   -0.8431    0.1432 C   0  0  0  0  0  0  0  0  0  0  0  0
   -1.9624    0.4315   -0.1198 C   0  0  0  0  0  0  0  0  0  0  0  0
   -0.4788    0.2306   -0.0577 C   0  0  0  0  0  0  0  0  0  0  0  0
    0.4031    1.2862   -0.3174 C   0  0  0  0  0  0  0  0  0  0  0  0
    1.7151    1.1418   -0.2658 N   0  0  0  0  0  0  0  0  0  0  0  0
    2.1770   -0.0651    0.0468 C   0  0  0  0  0  0  0  0  0  0  0  0
    1.3142   -1.1180    0.3038 C   0  0  0  0  0  0  0  0  0  0  0  0
   -0.0028   -0.9706    0.2521 N   0  0  0  0  0  0  0  0  0  0  0  0
   -2.5189   -1.2345    1.1288 H   0  0  0  0  0  0  0  0  0  0  0  0
   -2.4985   -1.6026   -0.5904 H   0  0  0  0  0  0  0  0  0  0  0  0
   -3.8179   -0.6389    0.0865 H   0  0  0  0  0  0  0  0  0  0  0  0
   -2.2316    1.1962    0.6139 H   0  0  0  0  0  0  0  0  0  0  0  0
   -2.2115    0.8316   -1.1061 H   0  0  0  0  0  0  0  0  0  0  0  0
    0.0414    2.2727   -0.5730 H   0  0  0  0  0  0  0  0  0  0  0  0
    3.2507   -0.1726    0.0869 H   0  0  0  0  0  0  0  0  0  0  0  0
    1.6723   -2.1055    0.5577 H   0  0  0  0  0  0  0  0  0  0  0  0
  1  2  1  0  0  0  0
  2  3  1  0  0  0  0
  3  4  4  0  0  0  0
  4  5  4  0  0  0  0
  5  6  4  0  0  0  0
  6  7  4  0  0  0  0
  3  8  4  0  0  0  0
  7  8  4  0  0  0  0
  1  9  1  0  0  0  0
  1 10  1  0  0  0  0
  1 11  1  0  0  0  0
  2 12  1  0  0  0  0
  2 13  1  0  0  0  0
  4 14  1  0  0  0  0
  6 15  1  0  0  0  0
  7 16  1  0  0  0  0
M  END
