 xtb: 6.7.1 (edcfbbe)
          04062518003D

 24 24  0     0  0            999 V2000
   -2.0252   -1.0625   -0.6403 C   0  0  0  0  0  0  0  0  0  0  0  0
   -1.2272   -0.2206    0.3665 C   0  0  0  0  0  0  0  0  0  0  0  0
   -1.8945    0.0473    1.1940 H   0  0  0  0  0  0  0  0  0  0  0  0
   -0.6916    1.0705   -0.2884 C   0  0  0  0  0  0  0  0  0  0  0  0
   -0.6496    0.9488   -1.3817 H   0  0  0  0  0  0  0  0  0  0  0  0
    0.7343    1.3364    0.2035 C   0  0  0  0  0  0  0  0  0  0  0  0
    0.7217    1.4240    1.3006 H   0  0  0  0  0  0  0  0  0  0  0  0
    1.6176    0.1526   -0.1942 C   0  0  0  0  0  0  0  0  0  0  0  0
    1.6546    0.0974   -1.2931 H   0  0  0  0  0  0  0  0  0  0  0  0
    1.0069   -1.1581    0.3354 C   0  0  0  0  0  0  0  0  0  0  0  0
    1.6837   -1.5462    1.1100 H   0  0  0  0  0  0  0  0  0  0  0  0
   -0.2054   -0.9686    1.0185 O   0  0  0  0  0  0  0  0  0  0  0  0
    0.8911   -2.0499   -0.7293 O   0  0  0  0  0  0  0  0  0  0  0  0
    2.9125    0.2702    0.3310 O   0  0  0  0  0  0  0  0  0  0  0  0
    1.2774    2.4941   -0.3771 O   0  0  0  0  0  0  0  0  0  0  0  0
   -1.4584    2.2021    0.0470 O   0  0  0  0  0  0  0  0  0  0  0  0
   -2.7603   -2.0361    0.0648 O   0  0  0  0  0  0  0  0  0  0  0  0
   -1.3293   -1.5224   -1.3507 H   0  0  0  0  0  0  0  0  0  0  0  0
   -2.7061   -0.3939   -1.1845 H   0  0  0  0  0  0  0  0  0  0  0  0
    0.7238   -2.9443   -0.3938 H   0  0  0  0  0  0  0  0  0  0  0  0
    3.2624    1.1399    0.0800 H   0  0  0  0  0  0  0  0  0  0  0  0
    0.6529    3.2228   -0.2397 H   0  0  0  0  0  0  0  0  0  0  0  0
   -2.3507    2.1259   -0.3175 H   0  0  0  0  0  0  0  0  0  0  0  0
   -3.2209   -2.6087   -0.5647 H   0  0  0  0  0  0  0  0  0  0  0  0
  1  2  1  0  0  0  0
  2  3  1  0  0  0  0
  2  4  1  0  0  0  0
  4  5  1  0  0  0  0
  4  6  1  0  0  0  0
  6  7  1  0  0  0  0
  6  8  1  0  0  0  0
  8  9  1  0  0  0  0
  8 10  1  0  0  0  0
 10 11  1  0  0  0  0
  2 12  1  0  0  0  0
 10 12  1  0  0  0  0
 10 13  1  0  0  0  0
  8 14  1  0  0  0  0
  6 15  1  0  0  0  0
  4 16  1  0  0  0  0
  1 17  1  0  0  0  0
  1 18  1  0  0  0  0
  1 19  1  0  0  0  0
 13 20  1  0  0  0  0
 14 21  1  0  0  0  0
 15 22  1  0  0  0  0
 16 23  1  0  0  0  0
 17 24  1  0  0  0  0
M  END
