 xtb: 6.7.1 (edcfbbe)
          04062518003D

 24 24  0     0  0            999 V2000
   -2.4684   -0.5574   -0.1530 C   0  0  0  0  0  0  0  0  0  0  0  0
   -1.0378   -0.2013    0.2648 C   0  0  0  0  0  0  0  0  0  0  0  0
   -0.9355   -0.2712    1.3574 H   0  0  0  0  0  0  0  0  0  0  0  0
   -0.6391    1.2201   -0.1809 C   0  0  0  0  0  0  0  0  0  0  0  0
   -1.1187    1.4519   -1.1437 H   0  0  0  0  0  0  0  0  0  0  0  0
    0.8906    1.3087   -0.4066 C   0  0  0  0  0  0  0  0  0  0  0  0
    1.1885    2.3225   -0.1131 H   0  0  0  0  0  0  0  0  0  0  0  0
    1.6227    0.2776    0.4657 C   0  0  0  0  0  0  0  0  0  0  0  0
    2.6986    0.3229    0.2389 H   0  0  0  0  0  0  0  0  0  0  0  0
    1.1509   -1.1356    0.0775 C   0  0  0  0  0  0  0  0  0  0  0  0
    1.2642   -1.7802    0.9703 H   0  0  0  0  0  0  0  0  0  0  0  0
   -0.1955   -1.1688   -0.3469 O   0  0  0  0  0  0  0  0  0  0  0  0
    1.9315   -1.5782   -0.9777 O   0  0  0  0  0  0  0  0  0  0  0  0
    1.3870    0.4425    1.8382 O   0  0  0  0  0  0  0  0  0  0  0  0
    1.2435    1.1755   -1.7570 O   0  0  0  0  0  0  0  0  0  0  0  0
   -0.9665    2.1862    0.7862 O   0  0  0  0  0  0  0  0  0  0  0  0
   -2.8995   -1.7751    0.3960 O   0  0  0  0  0  0  0  0  0  0  0  0
   -2.5116   -0.5885   -1.2493 H   0  0  0  0  0  0  0  0  0  0  0  0
   -3.1631    0.1989    0.2144 H   0  0  0  0  0  0  0  0  0  0  0  0
    1.6542   -2.4685   -1.2460 H   0  0  0  0  0  0  0  0  0  0  0  0
    1.6177    1.3444    2.1045 H   0  0  0  0  0  0  0  0  0  0  0  0
    1.3085    0.2342   -1.9862 H   0  0  0  0  0  0  0  0  0  0  0  0
   -1.9249    2.2312    0.9053 H   0  0  0  0  0  0  0  0  0  0  0  0
   -2.2900   -2.4714    0.1123 H   0  0  0  0  0  0  0  0  0  0  0  0
  1  2  1  0  0  0  0
  2  3  1  0  0  0  0
  2  4  1  0  0  0  0
  4  5  1  0  0  0  0
  4  6  1  0  0  0  0
  6  7  1  0  0  0  0
  6  8  1  0  0  0  0
  8  9  1  0  0  0  0
  8 10  1  0  0  0  0
 10 11  1  0  0  0  0
  2 12  1  0  0  0  0
 10 12  1  0  0  0  0
 10 13  1  0  0  0  0
  8 14  1  0  0  0  0
  6 15  1  0  0  0  0
  4 16  1  0  0  0  0
  1 17  1  0  0  0  0
  1 18  1  0  0  0  0
  1 19  1  0  0  0  0
 13 20  1  0  0  0  0
 14 21  1  0  0  0  0
 15 22  1  0  0  0  0
 16 23  1  0  0  0  0
 17 24  1  0  0  0  0
M  END
