 xtb: 6.7.1 (edcfbbe)
          04062520053D

 27 27  0     0  0            999 V2000
   -2.5168    1.1356    1.1304 C   0  0  0  0  0  0  0  0  0  0  0  0
   -1.5049    0.5150    0.2204 C   0  0  0  0  0  0  0  0  0  0  0  0
   -0.7207    1.1882   -0.6117 C   0  0  0  0  0  0  0  0  0  0  0  0
    0.2896    0.4492   -1.4266 C   0  0  0  0  0  0  0  0  0  0  0  0
    1.0667   -0.5255   -0.5146 C   0  0  0  0  0  0  0  0  0  0  0  0
    1.6911   -1.1508   -1.1595 H   0  0  0  0  0  0  0  0  0  0  0  0
    0.0975   -1.4405    0.2557 C   0  0  0  0  0  0  0  0  0  0  0  0
   -1.3742   -0.9896    0.2295 C   0  0  0  0  0  0  0  0  0  0  0  0
   -1.8851   -1.4070    1.1126 H   0  0  0  0  0  0  0  0  0  0  0  0
   -1.9598   -1.5667   -0.9374 O   0  0  0  0  0  0  0  0  0  0  0  0
    1.9925    0.2699    0.3801 C   0  0  0  0  0  0  0  0  0  0  0  0
    1.6245    0.8004    1.5355 C   0  0  0  0  0  0  0  0  0  0  0  0
    3.3808    0.4439   -0.1595 C   0  0  0  0  0  0  0  0  0  0  0  0
   -2.2792    0.9003    2.1678 H   0  0  0  0  0  0  0  0  0  0  0  0
   -3.5142    0.7483    0.9260 H   0  0  0  0  0  0  0  0  0  0  0  0
   -2.5272    2.2153    1.0094 H   0  0  0  0  0  0  0  0  0  0  0  0
   -0.7684    2.2641   -0.6894 H   0  0  0  0  0  0  0  0  0  0  0  0
   -0.2146   -0.1369   -2.1989 H   0  0  0  0  0  0  0  0  0  0  0  0
    0.9800    1.1392   -1.9115 H   0  0  0  0  0  0  0  0  0  0  0  0
    0.1106   -2.4394   -0.1832 H   0  0  0  0  0  0  0  0  0  0  0  0
    0.4215   -1.5246    1.2923 H   0  0  0  0  0  0  0  0  0  0  0  0
   -2.8693   -1.2538   -1.0240 H   0  0  0  0  0  0  0  0  0  0  0  0
    2.3103    1.3803    2.1306 H   0  0  0  0  0  0  0  0  0  0  0  0
    0.6311    0.6904    1.9327 H   0  0  0  0  0  0  0  0  0  0  0  0
    3.8831   -0.5216   -0.2101 H   0  0  0  0  0  0  0  0  0  0  0  0
    3.3473    0.8521   -1.1684 H   0  0  0  0  0  0  0  0  0  0  0  0
    3.9658    1.1090    0.4695 H   0  0  0  0  0  0  0  0  0  0  0  0
  1  2  1  0  0  0  0
  2  3  2  0  0  0  0
  3  4  1  0  0  0  0
  4  5  1  0  0  0  0
  5  6  1  0  0  0  0
  5  7  1  0  0  0  0
  2  8  1  0  0  0  0
  7  8  1  0  0  0  0
  8  9  1  0  0  0  0
  8 10  1  0  0  0  0
  5 11  1  0  0  0  0
 11 12  2  0  0  0  0
 11 13  1  0  0  0  0
  1 14  1  0  0  0  0
  1 15  1  0  0  0  0
  1 16  1  0  0  0  0
  3 17  1  0  0  0  0
  4 18  1  0  0  0  0
  4 19  1  0  0  0  0
  7 20  1  0  0  0  0
  7 21  1  0  0  0  0
 10 22  1  0  0  0  0
 12 23  1  0  0  0  0
 12 24  1  0  0  0  0
 13 25  1  0  0  0  0
 13 26  1  0  0  0  0
 13 27  1  0  0  0  0
M  END
