 xtb: 6.7.1 (edcfbbe)
          04062518003D

 24 24  0     0  0            999 V2000
   -2.5140   -0.9988    0.3461 C   0  0  0  0  0  0  0  0  0  0  0  0
   -1.0687   -0.5246    0.5955 C   0  0  0  0  0  0  0  0  0  0  0  0
   -0.9018   -0.4830    1.6841 H   0  0  0  0  0  0  0  0  0  0  0  0
   -0.8022    0.8686   -0.0137 C   0  0  0  0  0  0  0  0  0  0  0  0
   -0.9546    0.8130   -1.0976 H   0  0  0  0  0  0  0  0  0  0  0  0
    0.6594    1.2564    0.2382 C   0  0  0  0  0  0  0  0  0  0  0  0
    0.8347    1.3419    1.3251 H   0  0  0  0  0  0  0  0  0  0  0  0
    1.5771    0.1529   -0.3017 C   0  0  0  0  0  0  0  0  0  0  0  0
    1.4686    0.1085   -1.3965 H   0  0  0  0  0  0  0  0  0  0  0  0
    1.1660   -1.2103    0.2933 C   0  0  0  0  0  0  0  0  0  0  0  0
    1.3595   -1.1878    1.3816 H   0  0  0  0  0  0  0  0  0  0  0  0
   -0.1862   -1.4811    0.0364 O   0  0  0  0  0  0  0  0  0  0  0  0
    1.9292   -2.2396   -0.2300 O   0  0  0  0  0  0  0  0  0  0  0  0
    2.8989    0.4779    0.0511 O   0  0  0  0  0  0  0  0  0  0  0  0
    0.9159    2.4882   -0.3851 O   0  0  0  0  0  0  0  0  0  0  0  0
   -1.7192    1.8170    0.4602 O   0  0  0  0  0  0  0  0  0  0  0  0
   -2.9967   -0.7305   -0.9426 O   0  0  0  0  0  0  0  0  0  0  0  0
   -3.1614   -0.5459    1.1037 H   0  0  0  0  0  0  0  0  0  0  0  0
   -2.5290   -2.0848    0.4566 H   0  0  0  0  0  0  0  0  0  0  0  0
    1.4968   -2.5744   -1.0316 H   0  0  0  0  0  0  0  0  0  0  0  0
    3.4747   -0.2746   -0.1521 H   0  0  0  0  0  0  0  0  0  0  0  0
    1.8670    2.6665   -0.3319 H   0  0  0  0  0  0  0  0  0  0  0  0
   -1.4308    2.1662    1.3150 H   0  0  0  0  0  0  0  0  0  0  0  0
   -3.1798    0.2170   -1.0187 H   0  0  0  0  0  0  0  0  0  0  0  0
  1  2  1  0  0  0  0
  2  3  1  0  0  0  0
  2  4  1  0  0  0  0
  4  5  1  0  0  0  0
  4  6  1  0  0  0  0
  6  7  1  0  0  0  0
  6  8  1  0  0  0  0
  8  9  1  0  0  0  0
  8 10  1  0  0  0  0
 10 11  1  0  0  0  0
  2 12  1  0  0  0  0
 10 12  1  0  0  0  0
 10 13  1  0  0  0  0
  8 14  1  0  0  0  0
  6 15  1  0  0  0  0
  4 16  1  0  0  0  0
  1 17  1  0  0  0  0
  1 18  1  0  0  0  0
  1 19  1  0  0  0  0
 13 20  1  0  0  0  0
 14 21  1  0  0  0  0
 15 22  1  0  0  0  0
 16 23  1  0  0  0  0
 17 24  1  0  0  0  0
M  END
