 xtb: 6.7.1 (edcfbbe)
          04062518003D

 24 24  0     0  0            999 V2000
   -2.5646   -0.6602   -0.3263 C   0  0  0  0  0  0  0  0  0  0  0  0
   -1.1845   -0.2916    0.2262 C   0  0  0  0  0  0  0  0  0  0  0  0
   -1.2386   -0.2334    1.3234 H   0  0  0  0  0  0  0  0  0  0  0  0
   -0.7055    1.0607   -0.3160 C   0  0  0  0  0  0  0  0  0  0  0  0
   -0.7125    1.0162   -1.4189 H   0  0  0  0  0  0  0  0  0  0  0  0
    0.7344    1.3377    0.1602 C   0  0  0  0  0  0  0  0  0  0  0  0
    0.7363    1.4480    1.2509 H   0  0  0  0  0  0  0  0  0  0  0  0
    1.6350    0.1593   -0.2181 C   0  0  0  0  0  0  0  0  0  0  0  0
    1.6852    0.0823   -1.3182 H   0  0  0  0  0  0  0  0  0  0  0  0
    1.0146   -1.1456    0.3317 C   0  0  0  0  0  0  0  0  0  0  0  0
    1.0158   -1.0947    1.4340 H   0  0  0  0  0  0  0  0  0  0  0  0
   -0.2895   -1.3226   -0.1573 O   0  0  0  0  0  0  0  0  0  0  0  0
    1.7709   -2.2489   -0.0195 O   0  0  0  0  0  0  0  0  0  0  0  0
    2.9178    0.3585    0.3144 O   0  0  0  0  0  0  0  0  0  0  0  0
    1.1824    2.5737   -0.3340 O   0  0  0  0  0  0  0  0  0  0  0  0
   -1.5816    2.0617    0.1274 O   0  0  0  0  0  0  0  0  0  0  0  0
   -3.1044   -1.7942    0.2975 O   0  0  0  0  0  0  0  0  0  0  0  0
   -2.4785   -0.8150   -1.4091 H   0  0  0  0  0  0  0  0  0  0  0  0
   -3.2488    0.1659   -0.1292 H   0  0  0  0  0  0  0  0  0  0  0  0
    1.5148   -2.5431   -0.9085 H   0  0  0  0  0  0  0  0  0  0  0  0
    3.4089   -0.4773    0.2741 H   0  0  0  0  0  0  0  0  0  0  0  0
    1.4796    2.4818   -1.2509 H   0  0  0  0  0  0  0  0  0  0  0  0
   -1.1317    2.9185    0.0417 H   0  0  0  0  0  0  0  0  0  0  0  0
   -2.4891   -2.5328    0.1792 H   0  0  0  0  0  0  0  0  0  0  0  0
  1  2  1  0  0  0  0
  2  3  1  0  0  0  0
  2  4  1  0  0  0  0
  4  5  1  0  0  0  0
  4  6  1  0  0  0  0
  6  7  1  0  0  0  0
  6  8  1  0  0  0  0
  8  9  1  0  0  0  0
  8 10  1  0  0  0  0
 10 11  1  0  0  0  0
  2 12  1  0  0  0  0
 10 12  1  0  0  0  0
 10 13  1  0  0  0  0
  8 14  1  0  0  0  0
  6 15  1  0  0  0  0
  4 16  1  0  0  0  0
  1 17  1  0  0  0  0
  1 18  1  0  0  0  0
  1 19  1  0  0  0  0
 13 20  1  0  0  0  0
 14 21  1  0  0  0  0
 15 22  1  0  0  0  0
 16 23  1  0  0  0  0
 17 24  1  0  0  0  0
M  END
