 xtb: 6.7.1 (edcfbbe)
          04062518003D

 24 24  0     0  0            999 V2000
   -2.2070   -0.9755   -0.4431 C   0  0  0  0  0  0  0  0  0  0  0  0
   -1.1637   -0.2252    0.3911 C   0  0  0  0  0  0  0  0  0  0  0  0
   -1.6700    0.1866    1.2716 H   0  0  0  0  0  0  0  0  0  0  0  0
   -0.5706    0.9312   -0.4226 C   0  0  0  0  0  0  0  0  0  0  0  0
   -0.3942    0.6073   -1.4610 H   0  0  0  0  0  0  0  0  0  0  0  0
    0.7807    1.3172    0.1875 C   0  0  0  0  0  0  0  0  0  0  0  0
    0.6381    1.5001    1.2652 H   0  0  0  0  0  0  0  0  0  0  0  0
    1.7593    0.1494   -0.0065 C   0  0  0  0  0  0  0  0  0  0  0  0
    2.1465    0.1810   -1.0305 H   0  0  0  0  0  0  0  0  0  0  0  0
    1.0250   -1.2020    0.1689 C   0  0  0  0  0  0  0  0  0  0  0  0
    1.6559   -1.8622    0.7826 H   0  0  0  0  0  0  0  0  0  0  0  0
   -0.1569   -1.0814    0.9218 O   0  0  0  0  0  0  0  0  0  0  0  0
    0.8095   -1.7476   -1.0944 O   0  0  0  0  0  0  0  0  0  0  0  0
    2.8803    0.2630    0.8301 O   0  0  0  0  0  0  0  0  0  0  0  0
    1.2231    2.4914   -0.4476 O   0  0  0  0  0  0  0  0  0  0  0  0
   -1.4841    1.9949   -0.3984 O   0  0  0  0  0  0  0  0  0  0  0  0
   -2.8917   -1.8907    0.3804 O   0  0  0  0  0  0  0  0  0  0  0  0
   -1.7057   -1.4889   -1.2722 H   0  0  0  0  0  0  0  0  0  0  0  0
   -2.8909   -0.2178   -0.8455 H   0  0  0  0  0  0  0  0  0  0  0  0
    0.5412   -2.6761   -1.0129 H   0  0  0  0  0  0  0  0  0  0  0  0
    2.6094    0.2013    1.7583 H   0  0  0  0  0  0  0  0  0  0  0  0
    2.1254    2.6906   -0.1588 H   0  0  0  0  0  0  0  0  0  0  0  0
   -1.0256    2.7878   -0.7204 H   0  0  0  0  0  0  0  0  0  0  0  0
   -3.5850   -2.3245   -0.1369 H   0  0  0  0  0  0  0  0  0  0  0  0
  1  2  1  0  0  0  0
  2  3  1  0  0  0  0
  2  4  1  0  0  0  0
  4  5  1  0  0  0  0
  4  6  1  0  0  0  0
  6  7  1  0  0  0  0
  6  8  1  0  0  0  0
  8  9  1  0  0  0  0
  8 10  1  0  0  0  0
 10 11  1  0  0  0  0
  2 12  1  0  0  0  0
 10 12  1  0  0  0  0
 10 13  1  0  0  0  0
  8 14  1  0  0  0  0
  6 15  1  0  0  0  0
  4 16  1  0  0  0  0
  1 17  1  0  0  0  0
  1 18  1  0  0  0  0
  1 19  1  0  0  0  0
 13 20  1  0  0  0  0
 14 21  1  0  0  0  0
 15 22  1  0  0  0  0
 16 23  1  0  0  0  0
 17 24  1  0  0  0  0
M  END
