 xtb: 6.7.1 (edcfbbe)
          04062518003D

 24 24  0     0  0            999 V2000
   -1.9191   -0.5614   -0.7991 C   0  0  0  0  0  0  0  0  0  0  0  0
   -1.2146   -0.0865    0.4855 C   0  0  0  0  0  0  0  0  0  0  0  0
   -1.9449   -0.0729    1.3050 H   0  0  0  0  0  0  0  0  0  0  0  0
   -0.6175    1.3219    0.3320 C   0  0  0  0  0  0  0  0  0  0  0  0
   -1.3433    1.9534   -0.1987 H   0  0  0  0  0  0  0  0  0  0  0  0
    0.6767    1.3106   -0.5001 C   0  0  0  0  0  0  0  0  0  0  0  0
    1.1605    2.2900   -0.3471 H   0  0  0  0  0  0  0  0  0  0  0  0
    1.6502    0.2455    0.0409 C   0  0  0  0  0  0  0  0  0  0  0  0
    2.4538    0.0772   -0.6845 H   0  0  0  0  0  0  0  0  0  0  0  0
    0.9540   -1.1154    0.2474 C   0  0  0  0  0  0  0  0  0  0  0  0
    1.5933   -1.7233    0.9115 H   0  0  0  0  0  0  0  0  0  0  0  0
   -0.2494   -1.0222    0.9588 O   0  0  0  0  0  0  0  0  0  0  0  0
    0.8162   -1.7216   -0.9995 O   0  0  0  0  0  0  0  0  0  0  0  0
    2.2698    0.6832    1.2214 O   0  0  0  0  0  0  0  0  0  0  0  0
    0.3334    1.1349   -1.8476 O   0  0  0  0  0  0  0  0  0  0  0  0
   -0.2814    1.8771    1.5836 O   0  0  0  0  0  0  0  0  0  0  0  0
   -2.3391   -1.8996   -0.7094 O   0  0  0  0  0  0  0  0  0  0  0  0
   -1.2313   -0.5126   -1.6433 H   0  0  0  0  0  0  0  0  0  0  0  0
   -2.7668    0.1072   -0.9959 H   0  0  0  0  0  0  0  0  0  0  0  0
    0.2775   -2.5238   -0.9135 H   0  0  0  0  0  0  0  0  0  0  0  0
    1.5848    1.0197    1.8251 H   0  0  0  0  0  0  0  0  0  0  0  0
    1.1329    1.1462   -2.3926 H   0  0  0  0  0  0  0  0  0  0  0  0
   -1.0792    2.0061    2.1166 H   0  0  0  0  0  0  0  0  0  0  0  0
   -2.9565   -1.9988    0.0294 H   0  0  0  0  0  0  0  0  0  0  0  0
  1  2  1  0  0  0  0
  2  3  1  0  0  0  0
  2  4  1  0  0  0  0
  4  5  1  0  0  0  0
  4  6  1  0  0  0  0
  6  7  1  0  0  0  0
  6  8  1  0  0  0  0
  8  9  1  0  0  0  0
  8 10  1  0  0  0  0
 10 11  1  0  0  0  0
  2 12  1  0  0  0  0
 10 12  1  0  0  0  0
 10 13  1  0  0  0  0
  8 14  1  0  0  0  0
  6 15  1  0  0  0  0
  4 16  1  0  0  0  0
  1 17  1  0  0  0  0
  1 18  1  0  0  0  0
  1 19  1  0  0  0  0
 13 20  1  0  0  0  0
 14 21  1  0  0  0  0
 15 22  1  0  0  0  0
 16 23  1  0  0  0  0
 17 24  1  0  0  0  0
M  END
