 xtb: 6.7.1 (edcfbbe)
          04062518003D

 24 24  0     0  0            999 V2000
   -2.1479   -0.9256   -0.2578 C   0  0  0  0  0  0  0  0  0  0  0  0
   -1.1646   -0.3540    0.7759 C   0  0  0  0  0  0  0  0  0  0  0  0
   -1.7013   -0.3762    1.7331 H   0  0  0  0  0  0  0  0  0  0  0  0
   -0.7570    1.1175    0.5492 C   0  0  0  0  0  0  0  0  0  0  0  0
   -1.6203    1.6687    0.1604 H   0  0  0  0  0  0  0  0  0  0  0  0
    0.4250    1.2966   -0.4249 C   0  0  0  0  0  0  0  0  0  0  0  0
    0.8188    2.3086   -0.2538 H   0  0  0  0  0  0  0  0  0  0  0  0
    1.5539    0.2978   -0.0805 C   0  0  0  0  0  0  0  0  0  0  0  0
    2.2476    0.2484   -0.9303 H   0  0  0  0  0  0  0  0  0  0  0  0
    1.0518   -1.1434    0.1600 C   0  0  0  0  0  0  0  0  0  0  0  0
    1.8447   -1.6748    0.7038 H   0  0  0  0  0  0  0  0  0  0  0  0
   -0.0478   -1.2052    1.0283 O   0  0  0  0  0  0  0  0  0  0  0  0
    0.8634   -1.8469   -1.0231 O   0  0  0  0  0  0  0  0  0  0  0  0
    2.2115    0.6920    1.1056 O   0  0  0  0  0  0  0  0  0  0  0  0
    0.0648    1.2693   -1.7773 O   0  0  0  0  0  0  0  0  0  0  0  0
   -0.4513    1.7208    1.7860 O   0  0  0  0  0  0  0  0  0  0  0  0
   -1.6401   -0.8688   -1.5815 O   0  0  0  0  0  0  0  0  0  0  0  0
   -3.0735   -0.3464   -0.1870 H   0  0  0  0  0  0  0  0  0  0  0  0
   -2.3432   -1.9664    0.0215 H   0  0  0  0  0  0  0  0  0  0  0  0
    0.0248   -1.5622   -1.4445 H   0  0  0  0  0  0  0  0  0  0  0  0
    2.7978    1.4400    0.9224 H   0  0  0  0  0  0  0  0  0  0  0  0
   -0.5444    0.5234   -1.9377 H   0  0  0  0  0  0  0  0  0  0  0  0
    0.3519    1.3040    2.1404 H   0  0  0  0  0  0  0  0  0  0  0  0
   -2.3050   -1.2181   -2.1934 H   0  0  0  0  0  0  0  0  0  0  0  0
  1  2  1  0  0  0  0
  2  3  1  0  0  0  0
  2  4  1  0  0  0  0
  4  5  1  0  0  0  0
  4  6  1  0  0  0  0
  6  7  1  0  0  0  0
  6  8  1  0  0  0  0
  8  9  1  0  0  0  0
  8 10  1  0  0  0  0
 10 11  1  0  0  0  0
  2 12  1  0  0  0  0
 10 12  1  0  0  0  0
 10 13  1  0  0  0  0
  8 14  1  0  0  0  0
  6 15  1  0  0  0  0
  4 16  1  0  0  0  0
  1 17  1  0  0  0  0
  1 18  1  0  0  0  0
  1 19  1  0  0  0  0
 13 20  1  0  0  0  0
 14 21  1  0  0  0  0
 15 22  1  0  0  0  0
 16 23  1  0  0  0  0
 17 24  1  0  0  0  0
M  END
