 xtb: 6.7.1 (edcfbbe)
          04032521163D

 19 19  0     0  0            999 V2000
    2.5027    0.0637   -0.0623 C   0  0  0  0  0  0  0  0  0  0  0  0
    0.9983    0.0669   -0.0060 C   0  0  0  0  0  0  0  0  0  0  0  0
    0.3077    1.1945    0.0967 C   0  0  0  0  0  0  0  0  0  0  0  0
   -1.1887    1.2725    0.1263 C   0  0  0  0  0  0  0  0  0  0  0  0
   -1.8225   -0.0263   -0.3631 C   0  0  0  0  0  0  0  0  0  0  0  0
   -1.1439   -1.2093    0.3172 C   0  0  0  0  0  0  0  0  0  0  0  0
    0.3236   -1.2741   -0.0975 C   0  0  0  0  0  0  0  0  0  0  0  0
    2.9208    0.5403    0.8226 H   0  0  0  0  0  0  0  0  0  0  0  0
    2.8537    0.6160   -0.9326 H   0  0  0  0  0  0  0  0  0  0  0  0
    2.8860   -0.9512   -0.1222 H   0  0  0  0  0  0  0  0  0  0  0  0
    0.8301    2.1397    0.1728 H   0  0  0  0  0  0  0  0  0  0  0  0
   -1.5143    1.4797    1.1518 H   0  0  0  0  0  0  0  0  0  0  0  0
   -1.5213    2.1117   -0.4901 H   0  0  0  0  0  0  0  0  0  0  0  0
   -2.8930   -0.0247   -0.1499 H   0  0  0  0  0  0  0  0  0  0  0  0
   -1.6921   -0.1103   -1.4441 H   0  0  0  0  0  0  0  0  0  0  0  0
   -1.2101   -1.0843    1.4000 H   0  0  0  0  0  0  0  0  0  0  0  0
   -1.6460   -2.1419    0.0531 H   0  0  0  0  0  0  0  0  0  0  0  0
    0.8560   -1.9905    0.5334 H   0  0  0  0  0  0  0  0  0  0  0  0
    0.4014   -1.6331   -1.1293 H   0  0  0  0  0  0  0  0  0  0  0  0
  1  2  1  0  0  0  0
  2  3  2  0  0  0  0
  3  4  1  0  0  0  0
  4  5  1  0  0  0  0
  5  6  1  0  0  0  0
  2  7  1  0  0  0  0
  6  7  1  0  0  0  0
  1  8  1  0  0  0  0
  1  9  1  0  0  0  0
  1 10  1  0  0  0  0
  3 11  1  0  0  0  0
  4 12  1  0  0  0  0
  4 13  1  0  0  0  0
  5 14  1  0  0  0  0
  5 15  1  0  0  0  0
  6 16  1  0  0  0  0
  6 17  1  0  0  0  0
  7 18  1  0  0  0  0
  7 19  1  0  0  0  0
M  END
