 xtb: 6.7.1 (edcfbbe)
          04032521303D

 19 19  0     0  0            999 V2000
   -1.7757   -0.0117    0.1864 C   0  0  0  0  0  0  0  0  0  0  0  0
   -0.9074   -1.2531    0.3646 C   0  0  0  0  0  0  0  0  0  0  0  0
    0.2409   -1.2538   -0.6405 C   0  0  0  0  0  0  0  0  0  0  0  0
    1.0928    0.0107   -0.5049 C   0  0  0  0  0  0  0  0  0  0  0  0
    0.2155    1.2607   -0.6450 C   0  0  0  0  0  0  0  0  0  0  0  0
   -0.9275    1.2431    0.3663 C   0  0  0  0  0  0  0  0  0  0  0  0
    1.7580   -0.0421    0.7454 O   0  0  0  0  0  0  0  0  0  0  0  0
   -2.5884   -0.0191    0.9149 H   0  0  0  0  0  0  0  0  0  0  0  0
   -2.2169   -0.0148   -0.8131 H   0  0  0  0  0  0  0  0  0  0  0  0
   -0.4887   -1.2617    1.3725 H   0  0  0  0  0  0  0  0  0  0  0  0
   -1.5062   -2.1563    0.2354 H   0  0  0  0  0  0  0  0  0  0  0  0
    0.8792   -2.1229   -0.4745 H   0  0  0  0  0  0  0  0  0  0  0  0
   -0.1515   -1.2998   -1.6575 H   0  0  0  0  0  0  0  0  0  0  0  0
    1.8483    0.0129   -1.3103 H   0  0  0  0  0  0  0  0  0  0  0  0
    0.8255    2.1562   -0.5054 H   0  0  0  0  0  0  0  0  0  0  0  0
   -0.1878    1.2829   -1.6587 H   0  0  0  0  0  0  0  0  0  0  0  0
   -0.5123    1.2497    1.3762 H   0  0  0  0  0  0  0  0  0  0  0  0
   -1.5413    2.1372    0.2436 H   0  0  0  0  0  0  0  0  0  0  0  0
    2.2993    0.7512    0.8490 H   0  0  0  0  0  0  0  0  0  0  0  0
  1  2  1  0  0  0  0
  2  3  1  0  0  0  0
  3  4  1  0  0  0  0
  4  5  1  0  0  0  0
  1  6  1  0  0  0  0
  5  6  1  0  0  0  0
  4  7  1  0  0  0  0
  1  8  1  0  0  0  0
  1  9  1  0  0  0  0
  2 10  1  0  0  0  0
  2 11  1  0  0  0  0
  3 12  1  0  0  0  0
  3 13  1  0  0  0  0
  4 14  1  0  0  0  0
  5 15  1  0  0  0  0
  5 16  1  0  0  0  0
  6 17  1  0  0  0  0
  6 18  1  0  0  0  0
  7 19  1  0  0  0  0
M  END
