 xtb: 6.7.1 (edcfbbe)
          04032521513D

 12 12  0     0  0            999 V2000
    0.0006    1.4258   -0.0001 C   0  0  0  0  0  0  0  0  0  0  0  0
    0.7880    0.3273   -0.0000 C   0  0  0  0  0  0  0  0  0  0  0  0
    0.2051   -1.0062   -0.0001 C   0  0  0  0  0  0  0  0  0  0  0  0
    0.8225   -2.0569   -0.0000 O   0  0  0  0  0  0  0  0  0  0  0  0
   -1.1770   -0.9924    0.0000 N   0  0  0  0  0  0  0  0  0  0  0  0
   -2.0034    0.1065    0.0001 C   0  0  0  0  0  0  0  0  0  0  0  0
   -3.2147    0.0147    0.0000 O   0  0  0  0  0  0  0  0  0  0  0  0
   -1.3519    1.3127   -0.0000 N   0  0  0  0  0  0  0  0  0  0  0  0
    2.5104    0.4301    0.0000 Cl  0  0  0  0  0  0  0  0  0  0  0  0
    0.4167    2.4209   -0.0002 H   0  0  0  0  0  0  0  0  0  0  0  0
   -1.6384   -1.8983   -0.0001 H   0  0  0  0  0  0  0  0  0  0  0  0
   -1.9342    2.1442   -0.0002 H   0  0  0  0  0  0  0  0  0  0  0  0
  1  2  2  0  0  0  0
  2  3  1  0  0  0  0
  3  4  2  0  0  0  0
  3  5  1  0  0  0  0
  5  6  1  0  0  0  0
  6  7  2  0  0  0  0
  1  8  4  0  0  0  0
  6  8  1  0  0  0  0
  2  9  1  0  0  0  0
  1 10  1  0  0  0  0
  5 11  1  0  0  0  0
  8 12  1  0  0  0  0
M  END
