 xtb: 6.7.1 (edcfbbe)
          04032521463D

 13 13  0     0  0            999 V2000
   -1.0378   -0.7351   -0.2199 C   0  0  0  0  0  0  0  0  0  0  0  0
   -1.0424    0.7263    0.2252 C   0  0  0  0  0  0  0  0  0  0  0  0
    0.3772    1.1585   -0.1396 C   0  0  0  0  0  0  0  0  0  0  0  0
    1.2068    0.0073    0.0077 O   0  0  0  0  0  0  0  0  0  0  0  0
    0.3901   -1.1572    0.1270 C   0  0  0  0  0  0  0  0  0  0  0  0
   -1.1988   -0.8020   -1.2959 H   0  0  0  0  0  0  0  0  0  0  0  0
   -1.7783   -1.3423    0.2927 H   0  0  0  0  0  0  0  0  0  0  0  0
   -1.7946    1.3264   -0.2788 H   0  0  0  0  0  0  0  0  0  0  0  0
   -1.1898    0.7925    1.3031 H   0  0  0  0  0  0  0  0  0  0  0  0
    0.4310    1.4957   -1.1832 H   0  0  0  0  0  0  0  0  0  0  0  0
    0.7734    1.9451    0.5065 H   0  0  0  0  0  0  0  0  0  0  0  0
    0.7900   -1.9232   -0.5415 H   0  0  0  0  0  0  0  0  0  0  0  0
    0.4560   -1.5198    1.1610 H   0  0  0  0  0  0  0  0  0  0  0  0
  1  2  1  0  0  0  0
  2  3  1  0  0  0  0
  3  4  1  0  0  0  0
  1  5  1  0  0  0  0
  4  5  1  0  0  0  0
  1  6  1  0  0  0  0
  1  7  1  0  0  0  0
  2  8  1  0  0  0  0
  2  9  1  0  0  0  0
  3 10  1  0  0  0  0
  3 11  1  0  0  0  0
  5 12  1  0  0  0  0
  5 13  1  0  0  0  0
M  END
