 xtb: 6.7.1 (edcfbbe)
          04062518003D

 24 24  0     0  0            999 V2000
   -2.4858   -0.7972    0.0009 C   0  0  0  0  0  0  0  0  0  0  0  0
   -1.1037   -0.5175    0.6026 C   0  0  0  0  0  0  0  0  0  0  0  0
   -1.0877   -0.8412    1.6562 H   0  0  0  0  0  0  0  0  0  0  0  0
   -0.7503    0.9919    0.5632 C   0  0  0  0  0  0  0  0  0  0  0  0
   -1.6360    1.5423    0.2245 H   0  0  0  0  0  0  0  0  0  0  0  0
    0.4067    1.2469   -0.4198 C   0  0  0  0  0  0  0  0  0  0  0  0
    0.7342    2.2905   -0.2906 H   0  0  0  0  0  0  0  0  0  0  0  0
    1.6082    0.3560   -0.0612 C   0  0  0  0  0  0  0  0  0  0  0  0
    2.2682    0.3219   -0.9362 H   0  0  0  0  0  0  0  0  0  0  0  0
    1.1471   -1.0933    0.2288 C   0  0  0  0  0  0  0  0  0  0  0  0
    1.2401   -1.2720    1.3248 H   0  0  0  0  0  0  0  0  0  0  0  0
   -0.1885   -1.3072   -0.1416 O   0  0  0  0  0  0  0  0  0  0  0  0
    1.9458   -1.9673   -0.4836 O   0  0  0  0  0  0  0  0  0  0  0  0
    2.2445    0.9246    1.0573 O   0  0  0  0  0  0  0  0  0  0  0  0
    0.0579    0.9907   -1.7531 O   0  0  0  0  0  0  0  0  0  0  0  0
   -0.4514    1.4948    1.8422 O   0  0  0  0  0  0  0  0  0  0  0  0
   -2.6111   -0.2704   -1.2940 O   0  0  0  0  0  0  0  0  0  0  0  0
   -3.2540   -0.3192    0.6105 H   0  0  0  0  0  0  0  0  0  0  0  0
   -2.6472   -1.8824   -0.0050 H   0  0  0  0  0  0  0  0  0  0  0  0
    1.4971   -2.8237   -0.5628 H   0  0  0  0  0  0  0  0  0  0  0  0
    3.1360    0.5615    1.1547 H   0  0  0  0  0  0  0  0  0  0  0  0
   -0.6694    1.5757   -2.0124 H   0  0  0  0  0  0  0  0  0  0  0  0
    0.4938    1.3644    2.0279 H   0  0  0  0  0  0  0  0  0  0  0  0
   -1.8693   -0.6036   -1.8231 H   0  0  0  0  0  0  0  0  0  0  0  0
  1  2  1  0  0  0  0
  2  3  1  0  0  0  0
  2  4  1  0  0  0  0
  4  5  1  0  0  0  0
  4  6  1  0  0  0  0
  6  7  1  0  0  0  0
  6  8  1  0  0  0  0
  8  9  1  0  0  0  0
  8 10  1  0  0  0  0
 10 11  1  0  0  0  0
  2 12  1  0  0  0  0
 10 12  1  0  0  0  0
 10 13  1  0  0  0  0
  8 14  1  0  0  0  0
  6 15  1  0  0  0  0
  4 16  1  0  0  0  0
  1 17  1  0  0  0  0
  1 18  1  0  0  0  0
  1 19  1  0  0  0  0
 13 20  1  0  0  0  0
 14 21  1  0  0  0  0
 15 22  1  0  0  0  0
 16 23  1  0  0  0  0
 17 24  1  0  0  0  0
M  END
