 xtb: 6.7.1 (edcfbbe)
          04062508313D

 24 24  0     0  0            999 V2000
   -2.8138   -1.2672    0.0256 C   0  0  0  0  0  0  0  0  0  0  0  0
   -1.6604   -0.6643   -0.5636 O   0  0  0  0  0  0  0  0  0  0  0  0
   -1.0607    0.3026    0.1212 C   0  0  0  0  0  0  0  0  0  0  0  0
   -1.4571    0.6768    1.2064 O   0  0  0  0  0  0  0  0  0  0  0  0
    0.1074    0.9074   -0.6340 C   0  0  0  0  0  0  0  0  0  0  0  0
    0.8432   -0.1346   -1.4795 C   0  0  0  0  0  0  0  0  0  0  0  0
    1.4234   -1.2498   -0.6005 C   0  0  0  0  0  0  0  0  0  0  0  0
    1.7916   -0.7265    0.7923 C   0  0  0  0  0  0  0  0  0  0  0  0
    2.2540    0.7234    0.7027 C   0  0  0  0  0  0  0  0  0  0  0  0
    1.0743    1.6243    0.3213 C   0  0  0  0  0  0  0  0  0  0  0  0
   -2.5410   -1.7645    0.9574 H   0  0  0  0  0  0  0  0  0  0  0  0
   -3.1766   -1.9825   -0.7057 H   0  0  0  0  0  0  0  0  0  0  0  0
   -3.5660   -0.5066    0.2387 H   0  0  0  0  0  0  0  0  0  0  0  0
   -0.3546    1.6446   -1.3009 H   0  0  0  0  0  0  0  0  0  0  0  0
    0.1684   -0.5580   -2.2226 H   0  0  0  0  0  0  0  0  0  0  0  0
    1.6461    0.3798   -2.0078 H   0  0  0  0  0  0  0  0  0  0  0  0
    0.7009   -2.0616   -0.5035 H   0  0  0  0  0  0  0  0  0  0  0  0
    2.3109   -1.6570   -1.0870 H   0  0  0  0  0  0  0  0  0  0  0  0
    0.9239   -0.7738    1.4556 H   0  0  0  0  0  0  0  0  0  0  0  0
    2.5717   -1.3509    1.2297 H   0  0  0  0  0  0  0  0  0  0  0  0
    2.6663    1.0500    1.6579 H   0  0  0  0  0  0  0  0  0  0  0  0
    3.0455    0.7988   -0.0444 H   0  0  0  0  0  0  0  0  0  0  0  0
    0.5167    1.9034    1.2181 H   0  0  0  0  0  0  0  0  0  0  0  0
    1.4441    2.5393   -0.1407 H   0  0  0  0  0  0  0  0  0  0  0  0
  1  2  1  0  0  0  0
  2  3  1  0  0  0  0
  3  4  2  0  0  0  0
  3  5  1  0  0  0  0
  5  6  1  0  0  0  0
  6  7  1  0  0  0  0
  7  8  1  0  0  0  0
  8  9  1  0  0  0  0
  5 10  1  0  0  0  0
  9 10  1  0  0  0  0
  1 11  1  0  0  0  0
  1 12  1  0  0  0  0
  1 13  1  0  0  0  0
  5 14  1  0  0  0  0
  6 15  1  0  0  0  0
  6 16  1  0  0  0  0
  7 17  1  0  0  0  0
  7 18  1  0  0  0  0
  8 19  1  0  0  0  0
  8 20  1  0  0  0  0
  9 21  1  0  0  0  0
  9 22  1  0  0  0  0
 10 23  1  0  0  0  0
 10 24  1  0  0  0  0
M  END
