 xtb: 6.7.1 (edcfbbe)
          04052518533D

 23 23  0     0  0            999 V2000
   -2.7812    0.2190    0.9990 C   0  0  0  0  0  0  0  0  0  0  0  0
   -1.7530   -0.0484   -0.0578 C   0  0  0  0  0  0  0  0  0  0  0  0
   -2.0458   -0.4220   -1.1774 O   0  0  0  0  0  0  0  0  0  0  0  0
   -0.3122    0.1656    0.3606 C   0  0  0  0  0  0  0  0  0  0  0  0
    0.3811    1.1155   -0.6239 C   0  0  0  0  0  0  0  0  0  0  0  0
    1.8554    1.2797   -0.2708 C   0  0  0  0  0  0  0  0  0  0  0  0
    2.5603   -0.0730   -0.2703 C   0  0  0  0  0  0  0  0  0  0  0  0
    1.8811   -1.0205    0.7134 C   0  0  0  0  0  0  0  0  0  0  0  0
    0.4070   -1.1917    0.3619 C   0  0  0  0  0  0  0  0  0  0  0  0
   -2.5662   -0.3904    1.8735 H   0  0  0  0  0  0  0  0  0  0  0  0
   -2.7203    1.2637    1.2960 H   0  0  0  0  0  0  0  0  0  0  0  0
   -3.7783   -0.0005    0.6274 H   0  0  0  0  0  0  0  0  0  0  0  0
   -0.2761    0.5923    1.3659 H   0  0  0  0  0  0  0  0  0  0  0  0
    0.2801    0.7065   -1.6317 H   0  0  0  0  0  0  0  0  0  0  0  0
   -0.1189    2.0867   -0.6064 H   0  0  0  0  0  0  0  0  0  0  0  0
    2.3293    1.9481   -0.9915 H   0  0  0  0  0  0  0  0  0  0  0  0
    1.9425    1.7347    0.7182 H   0  0  0  0  0  0  0  0  0  0  0  0
    2.5187   -0.5026   -1.2735 H   0  0  0  0  0  0  0  0  0  0  0  0
    3.6103    0.0537   -0.0013 H   0  0  0  0  0  0  0  0  0  0  0  0
    2.3734   -1.9942    0.6951 H   0  0  0  0  0  0  0  0  0  0  0  0
    1.9683   -0.6175    1.7246 H   0  0  0  0  0  0  0  0  0  0  0  0
    0.3096   -1.6380   -0.6305 H   0  0  0  0  0  0  0  0  0  0  0  0
   -0.0737   -1.8608    1.0791 H   0  0  0  0  0  0  0  0  0  0  0  0
  1  2  1  0  0  0  0
  2  3  2  0  0  0  0
  2  4  1  0  0  0  0
  4  5  1  0  0  0  0
  5  6  1  0  0  0  0
  6  7  1  0  0  0  0
  7  8  1  0  0  0  0
  4  9  1  0  0  0  0
  8  9  1  0  0  0  0
  1 10  1  0  0  0  0
  1 11  1  0  0  0  0
  1 12  1  0  0  0  0
  4 13  1  0  0  0  0
  5 14  1  0  0  0  0
  5 15  1  0  0  0  0
  6 16  1  0  0  0  0
  6 17  1  0  0  0  0
  7 18  1  0  0  0  0
  7 19  1  0  0  0  0
  8 20  1  0  0  0  0
  8 21  1  0  0  0  0
  9 22  1  0  0  0  0
  9 23  1  0  0  0  0
M  END
