 xtb: 6.7.1 (edcfbbe)
          04062518003D

 24 24  0     0  0            999 V2000
   -1.9553   -1.2820   -0.3355 C   0  0  0  0  0  0  0  0  0  0  0  0
   -1.2619   -0.4264    0.7413 C   0  0  0  0  0  0  0  0  0  0  0  0
   -1.9193   -0.3771    1.6158 H   0  0  0  0  0  0  0  0  0  0  0  0
   -0.9835    1.0130    0.2469 C   0  0  0  0  0  0  0  0  0  0  0  0
   -1.3440    1.1170   -0.7844 H   0  0  0  0  0  0  0  0  0  0  0  0
    0.5258    1.2758    0.2355 C   0  0  0  0  0  0  0  0  0  0  0  0
    0.8707    1.3722    1.2770 H   0  0  0  0  0  0  0  0  0  0  0  0
    1.2444    0.0929   -0.4183 C   0  0  0  0  0  0  0  0  0  0  0  0
    0.8107   -0.0887   -1.4118 H   0  0  0  0  0  0  0  0  0  0  0  0
    1.0293   -1.1549    0.4467 C   0  0  0  0  0  0  0  0  0  0  0  0
    1.8779   -1.2277    1.1438 H   0  0  0  0  0  0  0  0  0  0  0  0
   -0.0990   -1.0467    1.2821 O   0  0  0  0  0  0  0  0  0  0  0  0
    0.9628   -2.2717   -0.3778 O   0  0  0  0  0  0  0  0  0  0  0  0
    2.6262    0.3182   -0.5139 O   0  0  0  0  0  0  0  0  0  0  0  0
    0.8476    2.4322   -0.4955 O   0  0  0  0  0  0  0  0  0  0  0  0
   -1.5603    1.9962    1.0772 O   0  0  0  0  0  0  0  0  0  0  0  0
   -1.4331   -1.0049   -1.6162 O   0  0  0  0  0  0  0  0  0  0  0  0
   -3.0292   -1.0512   -0.3174 H   0  0  0  0  0  0  0  0  0  0  0  0
   -1.8114   -2.3336   -0.0696 H   0  0  0  0  0  0  0  0  0  0  0  0
    1.0539   -3.0807    0.1487 H   0  0  0  0  0  0  0  0  0  0  0  0
    2.7533    1.1863   -0.9295 H   0  0  0  0  0  0  0  0  0  0  0  0
    0.3707    3.1819   -0.1107 H   0  0  0  0  0  0  0  0  0  0  0  0
   -2.5222    1.9956    0.9759 H   0  0  0  0  0  0  0  0  0  0  0  0
   -1.7489   -1.6745   -2.2383 H   0  0  0  0  0  0  0  0  0  0  0  0
  1  2  1  0  0  0  0
  2  3  1  0  0  0  0
  2  4  1  0  0  0  0
  4  5  1  0  0  0  0
  4  6  1  0  0  0  0
  6  7  1  0  0  0  0
  6  8  1  0  0  0  0
  8  9  1  0  0  0  0
  8 10  1  0  0  0  0
 10 11  1  0  0  0  0
  2 12  1  0  0  0  0
 10 12  1  0  0  0  0
 10 13  1  0  0  0  0
  8 14  1  0  0  0  0
  6 15  1  0  0  0  0
  4 16  1  0  0  0  0
  1 17  1  0  0  0  0
  1 18  1  0  0  0  0
  1 19  1  0  0  0  0
 13 20  1  0  0  0  0
 14 21  1  0  0  0  0
 15 22  1  0  0  0  0
 16 23  1  0  0  0  0
 17 24  1  0  0  0  0
M  END
