 xtb: 6.7.1 (edcfbbe)
          04062518003D

 24 24  0     0  0            999 V2000
   -2.2256   -0.9727   -0.3902 C   0  0  0  0  0  0  0  0  0  0  0  0
   -1.1642   -0.2153    0.4272 C   0  0  0  0  0  0  0  0  0  0  0  0
   -1.6336    0.1885    1.3345 H   0  0  0  0  0  0  0  0  0  0  0  0
   -0.5791    0.9387   -0.4000 C   0  0  0  0  0  0  0  0  0  0  0  0
   -0.4382    0.6203   -1.4386 H   0  0  0  0  0  0  0  0  0  0  0  0
    0.7911    1.3279    0.1779 C   0  0  0  0  0  0  0  0  0  0  0  0
    0.6809    1.5204    1.2607 H   0  0  0  0  0  0  0  0  0  0  0  0
    1.7645    0.1561   -0.0182 C   0  0  0  0  0  0  0  0  0  0  0  0
    2.1581    0.2001   -1.0384 H   0  0  0  0  0  0  0  0  0  0  0  0
    1.0154   -1.1928    0.1413 C   0  0  0  0  0  0  0  0  0  0  0  0
    1.6577   -1.8712    0.7212 H   0  0  0  0  0  0  0  0  0  0  0  0
   -0.1437   -1.0759    0.9300 O   0  0  0  0  0  0  0  0  0  0  0  0
    0.7526   -1.7012   -1.1269 O   0  0  0  0  0  0  0  0  0  0  0  0
    2.8835    0.2260    0.8209 O   0  0  0  0  0  0  0  0  0  0  0  0
    1.2983    2.4794   -0.4452 O   0  0  0  0  0  0  0  0  0  0  0  0
   -1.4376    2.0464   -0.4610 O   0  0  0  0  0  0  0  0  0  0  0  0
   -2.8283   -2.0291    0.3107 O   0  0  0  0  0  0  0  0  0  0  0  0
   -1.7569   -1.4229   -1.2667 H   0  0  0  0  0  0  0  0  0  0  0  0
   -2.9715   -0.2405   -0.7275 H   0  0  0  0  0  0  0  0  0  0  0  0
    0.4797   -2.6298   -1.0641 H   0  0  0  0  0  0  0  0  0  0  0  0
    2.6036    0.3291    1.7429 H   0  0  0  0  0  0  0  0  0  0  0  0
    0.5478    3.0030   -0.7744 H   0  0  0  0  0  0  0  0  0  0  0  0
   -1.6501    2.3528    0.4345 H   0  0  0  0  0  0  0  0  0  0  0  0
   -3.2677   -1.6888    1.1028 H   0  0  0  0  0  0  0  0  0  0  0  0
  1  2  1  0  0  0  0
  2  3  1  0  0  0  0
  2  4  1  0  0  0  0
  4  5  1  0  0  0  0
  4  6  1  0  0  0  0
  6  7  1  0  0  0  0
  6  8  1  0  0  0  0
  8  9  1  0  0  0  0
  8 10  1  0  0  0  0
 10 11  1  0  0  0  0
  2 12  1  0  0  0  0
 10 12  1  0  0  0  0
 10 13  1  0  0  0  0
  8 14  1  0  0  0  0
  6 15  1  0  0  0  0
  4 16  1  0  0  0  0
  1 17  1  0  0  0  0
  1 18  1  0  0  0  0
  1 19  1  0  0  0  0
 13 20  1  0  0  0  0
 14 21  1  0  0  0  0
 15 22  1  0  0  0  0
 16 23  1  0  0  0  0
 17 24  1  0  0  0  0
M  END
