 xtb: 6.7.1 (edcfbbe)
          04042519493D

 14 13  0     0  0            999 V2000
   -2.5359    0.6313    0.0663 C   0  0  0  0  0  0  0  0  0  0  0  0
   -1.3926   -0.3374   -0.1726 C   0  0  0  0  0  0  0  0  0  0  0  0
   -0.1724    0.4135   -0.2866 O   0  0  0  0  0  0  0  0  0  0  0  0
    0.9708   -0.1670    0.0544 C   0  0  0  0  0  0  0  0  0  0  0  0
    1.0468   -1.3111    0.4553 O   0  0  0  0  0  0  0  0  0  0  0  0
    2.1324    0.7641   -0.1218 C   0  0  0  0  0  0  0  0  0  0  0  0
   -3.4685    0.0794    0.1240 H   0  0  0  0  0  0  0  0  0  0  0  0
   -2.3824    1.1716    0.9960 H   0  0  0  0  0  0  0  0  0  0  0  0
   -2.5905    1.3461   -0.7494 H   0  0  0  0  0  0  0  0  0  0  0  0
   -1.5321   -0.8926   -1.1055 H   0  0  0  0  0  0  0  0  0  0  0  0
   -1.2847   -1.0546    0.6476 H   0  0  0  0  0  0  0  0  0  0  0  0
    3.0364    0.2945    0.2511 H   0  0  0  0  0  0  0  0  0  0  0  0
    1.9343    1.6913    0.4082 H   0  0  0  0  0  0  0  0  0  0  0  0
    2.2413    0.9955   -1.1783 H   0  0  0  0  0  0  0  0  0  0  0  0
  1  2  1  0  0  0  0
  2  3  1  0  0  0  0
  3  4  1  0  0  0  0
  4  5  2  0  0  0  0
  4  6  1  0  0  0  0
  1  7  1  0  0  0  0
  1  8  1  0  0  0  0
  1  9  1  0  0  0  0
  2 10  1  0  0  0  0
  2 11  1  0  0  0  0
  6 12  1  0  0  0  0
  6 13  1  0  0  0  0
  6 14  1  0  0  0  0
M  END
