 xtb: 6.7.1 (edcfbbe)
          04062518003D

 24 24  0     0  0            999 V2000
   -2.5590   -0.6789   -0.3257 C   0  0  0  0  0  0  0  0  0  0  0  0
   -1.1698   -0.3191    0.2160 C   0  0  0  0  0  0  0  0  0  0  0  0
   -1.2033   -0.2963    1.3186 H   0  0  0  0  0  0  0  0  0  0  0  0
   -0.7061    1.0476   -0.3093 C   0  0  0  0  0  0  0  0  0  0  0  0
   -0.7203    1.0283   -1.4048 H   0  0  0  0  0  0  0  0  0  0  0  0
    0.7323    1.3441    0.1514 C   0  0  0  0  0  0  0  0  0  0  0  0
    0.7475    1.4975    1.2441 H   0  0  0  0  0  0  0  0  0  0  0  0
    1.6631    0.1707   -0.1624 C   0  0  0  0  0  0  0  0  0  0  0  0
    1.8178    0.1274   -1.2491 H   0  0  0  0  0  0  0  0  0  0  0  0
    1.0348   -1.1608    0.2920 C   0  0  0  0  0  0  0  0  0  0  0  0
    1.0099   -1.1667    1.4036 H   0  0  0  0  0  0  0  0  0  0  0  0
   -0.2729   -1.3347   -0.1986 O   0  0  0  0  0  0  0  0  0  0  0  0
    1.8265   -2.1792   -0.1978 O   0  0  0  0  0  0  0  0  0  0  0  0
    2.8751    0.3784    0.5136 O   0  0  0  0  0  0  0  0  0  0  0  0
    1.2309    2.4867   -0.4968 O   0  0  0  0  0  0  0  0  0  0  0  0
   -1.5705    2.0893    0.0614 O   0  0  0  0  0  0  0  0  0  0  0  0
   -3.1559   -1.7366    0.3759 O   0  0  0  0  0  0  0  0  0  0  0  0
   -2.4618   -0.9140   -1.3915 H   0  0  0  0  0  0  0  0  0  0  0  0
   -3.2181    0.1827   -0.2065 H   0  0  0  0  0  0  0  0  0  0  0  0
    1.3976   -3.0370   -0.0533 H   0  0  0  0  0  0  0  0  0  0  0  0
    3.5041   -0.3098    0.2503 H   0  0  0  0  0  0  0  0  0  0  0  0
    0.5577    3.1845   -0.4510 H   0  0  0  0  0  0  0  0  0  0  0  0
   -1.6412    2.1325    1.0272 H   0  0  0  0  0  0  0  0  0  0  0  0
   -2.6322   -2.5385    0.2390 H   0  0  0  0  0  0  0  0  0  0  0  0
  1  2  1  0  0  0  0
  2  3  1  0  0  0  0
  2  4  1  0  0  0  0
  4  5  1  0  0  0  0
  4  6  1  0  0  0  0
  6  7  1  0  0  0  0
  6  8  1  0  0  0  0
  8  9  1  0  0  0  0
  8 10  1  0  0  0  0
 10 11  1  0  0  0  0
  2 12  1  0  0  0  0
 10 12  1  0  0  0  0
 10 13  1  0  0  0  0
  8 14  1  0  0  0  0
  6 15  1  0  0  0  0
  4 16  1  0  0  0  0
  1 17  1  0  0  0  0
  1 18  1  0  0  0  0
  1 19  1  0  0  0  0
 13 20  1  0  0  0  0
 14 21  1  0  0  0  0
 15 22  1  0  0  0  0
 16 23  1  0  0  0  0
 17 24  1  0  0  0  0
M  END
