 xtb: 6.7.1 (edcfbbe)
          04052518533D

 23 23  0     0  0            999 V2000
   -2.5735   -0.5414    1.0741 C   0  0  0  0  0  0  0  0  0  0  0  0
   -1.7502    0.0425   -0.0400 C   0  0  0  0  0  0  0  0  0  0  0  0
   -2.2421    0.3122   -1.1190 O   0  0  0  0  0  0  0  0  0  0  0  0
   -0.2782    0.2347    0.2600 C   0  0  0  0  0  0  0  0  0  0  0  0
    0.4202    1.0856   -0.8102 C   0  0  0  0  0  0  0  0  0  0  0  0
    1.8968    0.7122   -0.9700 C   0  0  0  0  0  0  0  0  0  0  0  0
    2.4854    0.3165    0.3796 C   0  0  0  0  0  0  0  0  0  0  0  0
    1.8381   -0.9802    0.8820 C   0  0  0  0  0  0  0  0  0  0  0  0
    0.4039   -1.1384    0.3634 C   0  0  0  0  0  0  0  0  0  0  0  0
   -2.0979   -0.4182    2.0404 H   0  0  0  0  0  0  0  0  0  0  0  0
   -3.5597   -0.0838    1.0728 H   0  0  0  0  0  0  0  0  0  0  0  0
   -2.7112   -1.6030    0.8742 H   0  0  0  0  0  0  0  0  0  0  0  0
   -0.2028    0.7201    1.2375 H   0  0  0  0  0  0  0  0  0  0  0  0
   -0.1034    0.9532   -1.7600 H   0  0  0  0  0  0  0  0  0  0  0  0
    0.3318    2.1388   -0.5364 H   0  0  0  0  0  0  0  0  0  0  0  0
    2.0044   -0.1213   -1.6659 H   0  0  0  0  0  0  0  0  0  0  0  0
    2.4416    1.5598   -1.3876 H   0  0  0  0  0  0  0  0  0  0  0  0
    3.5648    0.1844    0.2971 H   0  0  0  0  0  0  0  0  0  0  0  0
    2.3071    1.1265    1.0892 H   0  0  0  0  0  0  0  0  0  0  0  0
    2.4234   -1.8396    0.5521 H   0  0  0  0  0  0  0  0  0  0  0  0
    1.8362   -0.9830    1.9729 H   0  0  0  0  0  0  0  0  0  0  0  0
    0.4051   -1.5948   -0.6277 H   0  0  0  0  0  0  0  0  0  0  0  0
   -0.1543   -1.7944    1.0306 H   0  0  0  0  0  0  0  0  0  0  0  0
  1  2  1  0  0  0  0
  2  3  2  0  0  0  0
  2  4  1  0  0  0  0
  4  5  1  0  0  0  0
  5  6  1  0  0  0  0
  6  7  1  0  0  0  0
  7  8  1  0  0  0  0
  4  9  1  0  0  0  0
  8  9  1  0  0  0  0
  1 10  1  0  0  0  0
  1 11  1  0  0  0  0
  1 12  1  0  0  0  0
  4 13  1  0  0  0  0
  5 14  1  0  0  0  0
  5 15  1  0  0  0  0
  6 16  1  0  0  0  0
  6 17  1  0  0  0  0
  7 18  1  0  0  0  0
  7 19  1  0  0  0  0
  8 20  1  0  0  0  0
  8 21  1  0  0  0  0
  9 22  1  0  0  0  0
  9 23  1  0  0  0  0
M  END
