 xtb: 6.7.1 (edcfbbe)
          04062518003D

 24 24  0     0  0            999 V2000
   -2.1262   -0.9006   -0.3028 C   0  0  0  0  0  0  0  0  0  0  0  0
   -1.1766   -0.3396    0.7735 C   0  0  0  0  0  0  0  0  0  0  0  0
   -1.7292   -0.3574    1.7207 H   0  0  0  0  0  0  0  0  0  0  0  0
   -0.7594    1.1239    0.5444 C   0  0  0  0  0  0  0  0  0  0  0  0
   -1.6260    1.6571    0.1310 H   0  0  0  0  0  0  0  0  0  0  0  0
    0.4223    1.2889   -0.4339 C   0  0  0  0  0  0  0  0  0  0  0  0
    0.8629    2.2830   -0.2689 H   0  0  0  0  0  0  0  0  0  0  0  0
    1.5411    0.2821   -0.0827 C   0  0  0  0  0  0  0  0  0  0  0  0
    2.2467    0.2335   -0.9184 H   0  0  0  0  0  0  0  0  0  0  0  0
    1.0407   -1.1490    0.1909 C   0  0  0  0  0  0  0  0  0  0  0  0
    1.8298   -1.6527    0.7664 H   0  0  0  0  0  0  0  0  0  0  0  0
   -0.0734   -1.2020    1.0433 O   0  0  0  0  0  0  0  0  0  0  0  0
    0.8147   -1.8213   -1.0187 O   0  0  0  0  0  0  0  0  0  0  0  0
    2.2654    0.7389    1.0343 O   0  0  0  0  0  0  0  0  0  0  0  0
    0.0409    1.2813   -1.7790 O   0  0  0  0  0  0  0  0  0  0  0  0
   -0.4125    1.6413    1.8156 O   0  0  0  0  0  0  0  0  0  0  0  0
   -1.6426   -0.8547   -1.6240 O   0  0  0  0  0  0  0  0  0  0  0  0
   -3.0439   -0.3096   -0.2968 H   0  0  0  0  0  0  0  0  0  0  0  0
   -2.3681   -1.9329   -0.0241 H   0  0  0  0  0  0  0  0  0  0  0  0
    0.8721   -2.7797   -0.8850 H   0  0  0  0  0  0  0  0  0  0  0  0
    1.6423    0.8721    1.7698 H   0  0  0  0  0  0  0  0  0  0  0  0
   -0.6095    0.5622   -1.9385 H   0  0  0  0  0  0  0  0  0  0  0  0
   -0.4052    2.6084    1.7871 H   0  0  0  0  0  0  0  0  0  0  0  0
   -0.8206   -1.3891   -1.6704 H   0  0  0  0  0  0  0  0  0  0  0  0
  1  2  1  0  0  0  0
  2  3  1  0  0  0  0
  2  4  1  0  0  0  0
  4  5  1  0  0  0  0
  4  6  1  0  0  0  0
  6  7  1  0  0  0  0
  6  8  1  0  0  0  0
  8  9  1  0  0  0  0
  8 10  1  0  0  0  0
 10 11  1  0  0  0  0
  2 12  1  0  0  0  0
 10 12  1  0  0  0  0
 10 13  1  0  0  0  0
  8 14  1  0  0  0  0
  6 15  1  0  0  0  0
  4 16  1  0  0  0  0
  1 17  1  0  0  0  0
  1 18  1  0  0  0  0
  1 19  1  0  0  0  0
 13 20  1  0  0  0  0
 14 21  1  0  0  0  0
 15 22  1  0  0  0  0
 16 23  1  0  0  0  0
 17 24  1  0  0  0  0
M  END
