 xtb: 6.7.1 (edcfbbe)
          04062518003D

 24 24  0     0  0            999 V2000
   -2.4757   -0.5156   -0.2314 C   0  0  0  0  0  0  0  0  0  0  0  0
   -1.0617   -0.1958    0.2711 C   0  0  0  0  0  0  0  0  0  0  0  0
   -1.0154   -0.3492    1.3608 H   0  0  0  0  0  0  0  0  0  0  0  0
   -0.6419    1.2581   -0.0501 C   0  0  0  0  0  0  0  0  0  0  0  0
   -1.2519    1.6383   -0.8811 H   0  0  0  0  0  0  0  0  0  0  0  0
    0.8445    1.3047   -0.4756 C   0  0  0  0  0  0  0  0  0  0  0  0
    1.2096    2.3224   -0.2756 H   0  0  0  0  0  0  0  0  0  0  0  0
    1.6377    0.3217    0.3910 C   0  0  0  0  0  0  0  0  0  0  0  0
    2.6935    0.3363    0.0926 H   0  0  0  0  0  0  0  0  0  0  0  0
    1.1257   -1.1189    0.1109 C   0  0  0  0  0  0  0  0  0  0  0  0
    1.2021   -1.6965    1.0475 H   0  0  0  0  0  0  0  0  0  0  0  0
   -0.2044   -1.1308   -0.3617 O   0  0  0  0  0  0  0  0  0  0  0  0
    1.8991   -1.7744   -0.8256 O   0  0  0  0  0  0  0  0  0  0  0  0
    1.5849    0.6425    1.7574 O   0  0  0  0  0  0  0  0  0  0  0  0
    1.0442    0.9412   -1.8143 O   0  0  0  0  0  0  0  0  0  0  0  0
   -0.7581    2.0965    1.0772 O   0  0  0  0  0  0  0  0  0  0  0  0
   -2.9176   -1.7742    0.2025 O   0  0  0  0  0  0  0  0  0  0  0  0
   -2.4715   -0.4630   -1.3276 H   0  0  0  0  0  0  0  0  0  0  0  0
   -3.1897    0.2073    0.1662 H   0  0  0  0  0  0  0  0  0  0  0  0
    1.7829   -1.3271   -1.6815 H   0  0  0  0  0  0  0  0  0  0  0  0
    0.8295    1.2329    1.9261 H   0  0  0  0  0  0  0  0  0  0  0  0
    0.7027    1.6289   -2.4037 H   0  0  0  0  0  0  0  0  0  0  0  0
   -1.6867    2.2089    1.3244 H   0  0  0  0  0  0  0  0  0  0  0  0
   -2.2830   -2.4395   -0.1008 H   0  0  0  0  0  0  0  0  0  0  0  0
  1  2  1  0  0  0  0
  2  3  1  0  0  0  0
  2  4  1  0  0  0  0
  4  5  1  0  0  0  0
  4  6  1  0  0  0  0
  6  7  1  0  0  0  0
  6  8  1  0  0  0  0
  8  9  1  0  0  0  0
  8 10  1  0  0  0  0
 10 11  1  0  0  0  0
  2 12  1  0  0  0  0
 10 12  1  0  0  0  0
 10 13  1  0  0  0  0
  8 14  1  0  0  0  0
  6 15  1  0  0  0  0
  4 16  1  0  0  0  0
  1 17  1  0  0  0  0
  1 18  1  0  0  0  0
  1 19  1  0  0  0  0
 13 20  1  0  0  0  0
 14 21  1  0  0  0  0
 15 22  1  0  0  0  0
 16 23  1  0  0  0  0
 17 24  1  0  0  0  0
M  END
