 xtb: 6.7.1 (edcfbbe)
          04062518003D

 24 24  0     0  0            999 V2000
   -2.1637   -1.2675    0.0316 C   0  0  0  0  0  0  0  0  0  0  0  0
   -0.8781   -0.5666    0.4960 C   0  0  0  0  0  0  0  0  0  0  0  0
   -1.0142   -0.2634    1.5446 H   0  0  0  0  0  0  0  0  0  0  0  0
   -0.6090    0.7040   -0.3258 C   0  0  0  0  0  0  0  0  0  0  0  0
   -0.6854    0.4546   -1.3972 H   0  0  0  0  0  0  0  0  0  0  0  0
    0.7983    1.2906   -0.0762 C   0  0  0  0  0  0  0  0  0  0  0  0
    0.7093    2.0555    0.7026 H   0  0  0  0  0  0  0  0  0  0  0  0
    1.8119    0.2205    0.3936 C   0  0  0  0  0  0  0  0  0  0  0  0
    2.7895    0.4847   -0.0213 H   0  0  0  0  0  0  0  0  0  0  0  0
    1.3830   -1.1482   -0.1474 C   0  0  0  0  0  0  0  0  0  0  0  0
    2.0911   -1.9200    0.1856 H   0  0  0  0  0  0  0  0  0  0  0  0
    0.1607   -1.5456    0.4266 O   0  0  0  0  0  0  0  0  0  0  0  0
    1.3241   -1.0704   -1.5359 O   0  0  0  0  0  0  0  0  0  0  0  0
    1.9859    0.1788    1.7841 O   0  0  0  0  0  0  0  0  0  0  0  0
    1.2772    1.9635   -1.2113 O   0  0  0  0  0  0  0  0  0  0  0  0
   -1.5398    1.7058    0.0019 O   0  0  0  0  0  0  0  0  0  0  0  0
   -3.2700   -0.4437    0.3182 O   0  0  0  0  0  0  0  0  0  0  0  0
   -2.2266   -2.2230    0.5648 H   0  0  0  0  0  0  0  0  0  0  0  0
   -2.0923   -1.4655   -1.0455 H   0  0  0  0  0  0  0  0  0  0  0  0
    1.2334   -1.9550   -1.9222 H   0  0  0  0  0  0  0  0  0  0  0  0
    1.2308   -0.2621    2.1996 H   0  0  0  0  0  0  0  0  0  0  0  0
    1.3836    1.3229   -1.9320 H   0  0  0  0  0  0  0  0  0  0  0  0
   -2.4295    1.3104    0.0290 H   0  0  0  0  0  0  0  0  0  0  0  0
   -4.0880   -0.9101    0.0954 H   0  0  0  0  0  0  0  0  0  0  0  0
  1  2  1  0  0  0  0
  2  3  1  0  0  0  0
  2  4  1  0  0  0  0
  4  5  1  0  0  0  0
  4  6  1  0  0  0  0
  6  7  1  0  0  0  0
  6  8  1  0  0  0  0
  8  9  1  0  0  0  0
  8 10  1  0  0  0  0
 10 11  1  0  0  0  0
  2 12  1  0  0  0  0
 10 12  1  0  0  0  0
 10 13  1  0  0  0  0
  8 14  1  0  0  0  0
  6 15  1  0  0  0  0
  4 16  1  0  0  0  0
  1 17  1  0  0  0  0
  1 18  1  0  0  0  0
  1 19  1  0  0  0  0
 13 20  1  0  0  0  0
 14 21  1  0  0  0  0
 15 22  1  0  0  0  0
 16 23  1  0  0  0  0
 17 24  1  0  0  0  0
M  END
