 xtb: 6.7.1 (edcfbbe)
          04062518003D

 24 24  0     0  0            999 V2000
   -1.9966   -0.5997   -0.7507 C   0  0  0  0  0  0  0  0  0  0  0  0
   -1.1933   -0.1067    0.4670 C   0  0  0  0  0  0  0  0  0  0  0  0
   -1.8734   -0.0851    1.3276 H   0  0  0  0  0  0  0  0  0  0  0  0
   -0.6261    1.3120    0.2810 C   0  0  0  0  0  0  0  0  0  0  0  0
   -1.3724    1.9087   -0.2555 H   0  0  0  0  0  0  0  0  0  0  0  0
    0.6962    1.3087   -0.5168 C   0  0  0  0  0  0  0  0  0  0  0  0
    1.1325    2.3141   -0.4258 H   0  0  0  0  0  0  0  0  0  0  0  0
    1.6800    0.2970    0.1045 C   0  0  0  0  0  0  0  0  0  0  0  0
    2.5477    0.1964   -0.5597 H   0  0  0  0  0  0  0  0  0  0  0  0
    1.0203   -1.0902    0.1845 C   0  0  0  0  0  0  0  0  0  0  0  0
    1.6366   -1.7441    0.8151 H   0  0  0  0  0  0  0  0  0  0  0  0
   -0.2087   -1.0619    0.8665 O   0  0  0  0  0  0  0  0  0  0  0  0
    0.9458   -1.6960   -1.0661 O   0  0  0  0  0  0  0  0  0  0  0  0
    2.0617    0.6738    1.4044 O   0  0  0  0  0  0  0  0  0  0  0  0
    0.5209    0.9570   -1.8695 O   0  0  0  0  0  0  0  0  0  0  0  0
   -0.4463    1.9629    1.5142 O   0  0  0  0  0  0  0  0  0  0  0  0
   -2.5501   -1.8709   -0.5138 O   0  0  0  0  0  0  0  0  0  0  0  0
   -1.3684   -0.6222   -1.6483 H   0  0  0  0  0  0  0  0  0  0  0  0
   -2.8405    0.0722   -0.9195 H   0  0  0  0  0  0  0  0  0  0  0  0
    0.7359   -1.0271   -1.7424 H   0  0  0  0  0  0  0  0  0  0  0  0
    2.7613    1.3421    1.3658 H   0  0  0  0  0  0  0  0  0  0  0  0
    0.1239    1.6922   -2.3574 H   0  0  0  0  0  0  0  0  0  0  0  0
    0.2253    1.4772    2.0239 H   0  0  0  0  0  0  0  0  0  0  0  0
   -1.8400   -2.4542   -0.2056 H   0  0  0  0  0  0  0  0  0  0  0  0
  1  2  1  0  0  0  0
  2  3  1  0  0  0  0
  2  4  1  0  0  0  0
  4  5  1  0  0  0  0
  4  6  1  0  0  0  0
  6  7  1  0  0  0  0
  6  8  1  0  0  0  0
  8  9  1  0  0  0  0
  8 10  1  0  0  0  0
 10 11  1  0  0  0  0
  2 12  1  0  0  0  0
 10 12  1  0  0  0  0
 10 13  1  0  0  0  0
  8 14  1  0  0  0  0
  6 15  1  0  0  0  0
  4 16  1  0  0  0  0
  1 17  1  0  0  0  0
  1 18  1  0  0  0  0
  1 19  1  0  0  0  0
 13 20  1  0  0  0  0
 14 21  1  0  0  0  0
 15 22  1  0  0  0  0
 16 23  1  0  0  0  0
 17 24  1  0  0  0  0
M  END
