 xtb: 6.7.1 (edcfbbe)
          04042519203D

 14 14  0     0  0            999 V2000
   -2.2369    0.2710    0.0000 C   0  0  0  0  0  0  0  0  0  0  0  0
   -1.7763   -1.0381   -0.0000 C   0  0  0  0  0  0  0  0  0  0  0  0
   -0.4189   -1.2934   -0.0000 C   0  0  0  0  0  0  0  0  0  0  0  0
    0.4903   -0.2327    0.0000 C   0  0  0  0  0  0  0  0  0  0  0  0
    0.0174    1.0831   -0.0001 C   0  0  0  0  0  0  0  0  0  0  0  0
   -1.3405    1.3307    0.0000 C   0  0  0  0  0  0  0  0  0  0  0  0
    1.9233   -0.4959    0.0000 C   0  0  0  0  0  0  0  0  0  0  0  0
    2.7985    0.3469    0.0000 O   0  0  0  0  0  0  0  0  0  0  0  0
   -3.2981    0.4662   -0.0001 H   0  0  0  0  0  0  0  0  0  0  0  0
   -2.4790   -1.8567    0.0005 H   0  0  0  0  0  0  0  0  0  0  0  0
   -0.0510   -2.3084   -0.0002 H   0  0  0  0  0  0  0  0  0  0  0  0
    0.7380    1.8874   -0.0003 H   0  0  0  0  0  0  0  0  0  0  0  0
   -1.7038    2.3465    0.0002 H   0  0  0  0  0  0  0  0  0  0  0  0
    2.1912   -1.5691    0.0001 H   0  0  0  0  0  0  0  0  0  0  0  0
  1  2  4  0  0  0  0
  2  3  4  0  0  0  0
  3  4  4  0  0  0  0
  4  5  4  0  0  0  0
  1  6  4  0  0  0  0
  5  6  4  0  0  0  0
  4  7  1  0  0  0  0
  7  8  2  0  0  0  0
  1  9  1  0  0  0  0
  2 10  1  0  0  0  0
  3 11  1  0  0  0  0
  5 12  1  0  0  0  0
  6 13  1  0  0  0  0
  7 14  1  0  0  0  0
M  END
