 xtb: 6.7.1 (edcfbbe)
          04032522113D

 11 10  0     0  0            999 V2000
   -2.6264    0.0238   -0.3683 C   0  0  0  0  0  0  0  0  0  0  0  0
   -1.3566    0.5505    0.0362 O   0  0  0  0  0  0  0  0  0  0  0  0
   -0.4536   -0.2899    0.4999 C   0  0  0  0  0  0  0  0  0  0  0  0
   -0.6191   -1.4824    0.6185 O   0  0  0  0  0  0  0  0  0  0  0  0
    0.8403    0.4274    0.8275 C   0  0  0  0  0  0  0  0  0  0  0  0
    1.8424    0.3343   -0.6563 Cl  0  0  0  0  0  0  0  0  0  0  0  0
   -3.2534   -0.1215    0.5112 H   0  0  0  0  0  0  0  0  0  0  0  0
   -2.4913   -0.9305   -0.8777 H   0  0  0  0  0  0  0  0  0  0  0  0
   -3.0576    0.7679   -1.0309 H   0  0  0  0  0  0  0  0  0  0  0  0
    1.3810   -0.0834    1.6208 H   0  0  0  0  0  0  0  0  0  0  0  0
    0.6669    1.4791    1.0419 H   0  0  0  0  0  0  0  0  0  0  0  0
  1  2  1  0  0  0  0
  2  3  1  0  0  0  0
  3  4  2  0  0  0  0
  3  5  1  0  0  0  0
  5  6  1  0  0  0  0
  1  7  1  0  0  0  0
  1  8  1  0  0  0  0
  1  9  1  0  0  0  0
  5 10  1  0  0  0  0
  5 11  1  0  0  0  0
M  END
