 xtb: 6.7.1 (edcfbbe)
          04052503223D

 18 17  0     0  0            999 V2000
    2.1478   -0.0026    0.0291 C   0  0  0  0  0  0  0  0  0  0  0  0
    0.8703   -0.7024    0.4791 C   0  0  0  0  0  0  0  0  0  0  0  0
   -0.4183    0.0003    0.0163 C   0  0  0  0  0  0  0  0  0  0  0  0
   -0.4836    1.4484    0.5154 C   0  0  0  0  0  0  0  0  0  0  0  0
   -1.6334   -0.7784    0.5395 C   0  0  0  0  0  0  0  0  0  0  0  0
   -0.4011   -0.0309   -1.4089 O   0  0  0  0  0  0  0  0  0  0  0  0
    2.2754    0.9483    0.5390 H   0  0  0  0  0  0  0  0  0  0  0  0
    2.1120    0.1735   -1.0430 H   0  0  0  0  0  0  0  0  0  0  0  0
    3.0093   -0.6277    0.2503 H   0  0  0  0  0  0  0  0  0  0  0  0
    0.8537   -0.7832    1.5666 H   0  0  0  0  0  0  0  0  0  0  0  0
    0.8568   -1.7110    0.0610 H   0  0  0  0  0  0  0  0  0  0  0  0
   -1.4588    1.8788    0.2970 H   0  0  0  0  0  0  0  0  0  0  0  0
   -0.3230    1.4814    1.5889 H   0  0  0  0  0  0  0  0  0  0  0  0
    0.2764    2.0492    0.0238 H   0  0  0  0  0  0  0  0  0  0  0  0
   -1.6239   -0.8040    1.6251 H   0  0  0  0  0  0  0  0  0  0  0  0
   -2.5578   -0.3077    0.2114 H   0  0  0  0  0  0  0  0  0  0  0  0
   -1.6108   -1.7983    0.1627 H   0  0  0  0  0  0  0  0  0  0  0  0
   -1.1964    0.4067   -1.7398 H   0  0  0  0  0  0  0  0  0  0  0  0
  1  2  1  0  0  0  0
  2  3  1  0  0  0  0
  3  4  1  0  0  0  0
  3  5  1  0  0  0  0
  3  6  1  0  0  0  0
  1  7  1  0  0  0  0
  1  8  1  0  0  0  0
  1  9  1  0  0  0  0
  2 10  1  0  0  0  0
  2 11  1  0  0  0  0
  4 12  1  0  0  0  0
  4 13  1  0  0  0  0
  4 14  1  0  0  0  0
  5 15  1  0  0  0  0
  5 16  1  0  0  0  0
  5 17  1  0  0  0  0
  6 18  1  0  0  0  0
M  END
