 xtb: 6.7.1 (edcfbbe)
          04062518003D

 24 24  0     0  0            999 V2000
   -2.5524   -0.9014    0.3150 C   0  0  0  0  0  0  0  0  0  0  0  0
   -1.1116   -0.4635    0.6231 C   0  0  0  0  0  0  0  0  0  0  0  0
   -0.9603   -0.4536    1.7145 H   0  0  0  0  0  0  0  0  0  0  0  0
   -0.8265    0.9372    0.0565 C   0  0  0  0  0  0  0  0  0  0  0  0
   -1.1022    0.9467   -1.0041 H   0  0  0  0  0  0  0  0  0  0  0  0
    0.6639    1.3019    0.1874 C   0  0  0  0  0  0  0  0  0  0  0  0
    0.9058    1.4769    1.2500 H   0  0  0  0  0  0  0  0  0  0  0  0
    1.5659    0.1678   -0.3049 C   0  0  0  0  0  0  0  0  0  0  0  0
    1.4922    0.1216   -1.4018 H   0  0  0  0  0  0  0  0  0  0  0  0
    1.1105   -1.1775    0.3020 C   0  0  0  0  0  0  0  0  0  0  0  0
    1.2907   -1.1452    1.3905 H   0  0  0  0  0  0  0  0  0  0  0  0
   -0.2481   -1.4221    0.0373 O   0  0  0  0  0  0  0  0  0  0  0  0
    1.8561   -2.2343   -0.1827 O   0  0  0  0  0  0  0  0  0  0  0  0
    2.8841    0.4450    0.0933 O   0  0  0  0  0  0  0  0  0  0  0  0
    0.9536    2.4552   -0.5627 O   0  0  0  0  0  0  0  0  0  0  0  0
   -1.6249    1.9231    0.6597 O   0  0  0  0  0  0  0  0  0  0  0  0
   -2.7854   -1.0374   -1.0608 O   0  0  0  0  0  0  0  0  0  0  0  0
   -3.2383   -0.1289    0.6667 H   0  0  0  0  0  0  0  0  0  0  0  0
   -2.7557   -1.8424    0.8394 H   0  0  0  0  0  0  0  0  0  0  0  0
    1.5597   -2.4593   -1.0788 H   0  0  0  0  0  0  0  0  0  0  0  0
    3.4493   -0.3072   -0.1422 H   0  0  0  0  0  0  0  0  0  0  0  0
    0.2811    3.1266   -0.3669 H   0  0  0  0  0  0  0  0  0  0  0  0
   -1.4572    1.9468    1.6139 H   0  0  0  0  0  0  0  0  0  0  0  0
   -2.1948   -1.7231   -1.4039 H   0  0  0  0  0  0  0  0  0  0  0  0
  1  2  1  0  0  0  0
  2  3  1  0  0  0  0
  2  4  1  0  0  0  0
  4  5  1  0  0  0  0
  4  6  1  0  0  0  0
  6  7  1  0  0  0  0
  6  8  1  0  0  0  0
  8  9  1  0  0  0  0
  8 10  1  0  0  0  0
 10 11  1  0  0  0  0
  2 12  1  0  0  0  0
 10 12  1  0  0  0  0
 10 13  1  0  0  0  0
  8 14  1  0  0  0  0
  6 15  1  0  0  0  0
  4 16  1  0  0  0  0
  1 17  1  0  0  0  0
  1 18  1  0  0  0  0
  1 19  1  0  0  0  0
 13 20  1  0  0  0  0
 14 21  1  0  0  0  0
 15 22  1  0  0  0  0
 16 23  1  0  0  0  0
 17 24  1  0  0  0  0
M  END
