 xtb: 6.7.1 (edcfbbe)
          04052518533D

 23 23  0     0  0            999 V2000
   -2.3181    1.1233   -0.1119 C   0  0  0  0  0  0  0  0  0  0  0  0
   -1.4294   -0.0876   -0.1586 C   0  0  0  0  0  0  0  0  0  0  0  0
   -1.5970   -0.9635   -0.9849 O   0  0  0  0  0  0  0  0  0  0  0  0
   -0.3532   -0.1574    0.9117 C   0  0  0  0  0  0  0  0  0  0  0  0
    0.4904    1.1227    0.9648 C   0  0  0  0  0  0  0  0  0  0  0  0
    1.2529    1.3471   -0.3458 C   0  0  0  0  0  0  0  0  0  0  0  0
    1.6675    0.0174   -0.9873 C   0  0  0  0  0  0  0  0  0  0  0  0
    1.8880   -1.0403    0.0878 C   0  0  0  0  0  0  0  0  0  0  0  0
    0.5526   -1.3898    0.7514 C   0  0  0  0  0  0  0  0  0  0  0  0
   -2.5235    1.4227    0.9106 H   0  0  0  0  0  0  0  0  0  0  0  0
   -1.8161    1.9446   -0.6194 H   0  0  0  0  0  0  0  0  0  0  0  0
   -3.2447    0.9150   -0.6405 H   0  0  0  0  0  0  0  0  0  0  0  0
   -0.9080   -0.2406    1.8536 H   0  0  0  0  0  0  0  0  0  0  0  0
   -0.1316    1.9880    1.1886 H   0  0  0  0  0  0  0  0  0  0  0  0
    1.2000    1.0097    1.7852 H   0  0  0  0  0  0  0  0  0  0  0  0
    0.6384    1.9080   -1.0522 H   0  0  0  0  0  0  0  0  0  0  0  0
    2.1390    1.9488   -0.1366 H   0  0  0  0  0  0  0  0  0  0  0  0
    0.8842   -0.3346   -1.6623 H   0  0  0  0  0  0  0  0  0  0  0  0
    2.5733    0.1554   -1.5796 H   0  0  0  0  0  0  0  0  0  0  0  0
    2.3208   -1.9404   -0.3510 H   0  0  0  0  0  0  0  0  0  0  0  0
    2.5948   -0.6607    0.8277 H   0  0  0  0  0  0  0  0  0  0  0  0
    0.0238   -2.1184    0.1321 H   0  0  0  0  0  0  0  0  0  0  0  0
    0.7361   -1.8493    1.7233 H   0  0  0  0  0  0  0  0  0  0  0  0
  1  2  1  0  0  0  0
  2  3  2  0  0  0  0
  2  4  1  0  0  0  0
  4  5  1  0  0  0  0
  5  6  1  0  0  0  0
  6  7  1  0  0  0  0
  7  8  1  0  0  0  0
  4  9  1  0  0  0  0
  8  9  1  0  0  0  0
  1 10  1  0  0  0  0
  1 11  1  0  0  0  0
  1 12  1  0  0  0  0
  4 13  1  0  0  0  0
  5 14  1  0  0  0  0
  5 15  1  0  0  0  0
  6 16  1  0  0  0  0
  6 17  1  0  0  0  0
  7 18  1  0  0  0  0
  7 19  1  0  0  0  0
  8 20  1  0  0  0  0
  8 21  1  0  0  0  0
  9 22  1  0  0  0  0
  9 23  1  0  0  0  0
M  END
