 xtb: 6.7.1 (edcfbbe)
          04062518003D

 24 24  0     0  0            999 V2000
   -2.2526   -0.9819   -0.3690 C   0  0  0  0  0  0  0  0  0  0  0  0
   -1.1573   -0.2205    0.3868 C   0  0  0  0  0  0  0  0  0  0  0  0
   -1.6061    0.2338    1.2787 H   0  0  0  0  0  0  0  0  0  0  0  0
   -0.5579    0.8947   -0.4735 C   0  0  0  0  0  0  0  0  0  0  0  0
   -0.3778    0.5195   -1.4944 H   0  0  0  0  0  0  0  0  0  0  0  0
    0.7830    1.3176    0.1519 C   0  0  0  0  0  0  0  0  0  0  0  0
    0.6113    1.5461    1.2110 H   0  0  0  0  0  0  0  0  0  0  0  0
    1.7775    0.1560    0.0284 C   0  0  0  0  0  0  0  0  0  0  0  0
    2.2407    0.1758   -0.9648 H   0  0  0  0  0  0  0  0  0  0  0  0
    1.0326   -1.2003    0.1357 C   0  0  0  0  0  0  0  0  0  0  0  0
    1.6596   -1.8873    0.7211 H   0  0  0  0  0  0  0  0  0  0  0  0
   -0.1588   -1.1194    0.8786 O   0  0  0  0  0  0  0  0  0  0  0  0
    0.8266   -1.6761   -1.1583 O   0  0  0  0  0  0  0  0  0  0  0  0
    2.8431    0.2443    0.9337 O   0  0  0  0  0  0  0  0  0  0  0  0
    1.2446    2.5192   -0.4085 O   0  0  0  0  0  0  0  0  0  0  0  0
   -1.4633    1.9662   -0.5149 O   0  0  0  0  0  0  0  0  0  0  0  0
   -2.9626   -1.8615    0.4664 O   0  0  0  0  0  0  0  0  0  0  0  0
   -1.8032   -1.5237   -1.2115 H   0  0  0  0  0  0  0  0  0  0  0  0
   -2.9752   -0.2592   -0.7523 H   0  0  0  0  0  0  0  0  0  0  0  0
    0.6304   -2.6251   -1.1482 H   0  0  0  0  0  0  0  0  0  0  0  0
    2.5095    0.3226    1.8394 H   0  0  0  0  0  0  0  0  0  0  0  0
    1.6178    2.3571   -1.2873 H   0  0  0  0  0  0  0  0  0  0  0  0
   -0.9512    2.7867   -0.6207 H   0  0  0  0  0  0  0  0  0  0  0  0
   -2.3242   -2.3920    0.9659 H   0  0  0  0  0  0  0  0  0  0  0  0
  1  2  1  0  0  0  0
  2  3  1  0  0  0  0
  2  4  1  0  0  0  0
  4  5  1  0  0  0  0
  4  6  1  0  0  0  0
  6  7  1  0  0  0  0
  6  8  1  0  0  0  0
  8  9  1  0  0  0  0
  8 10  1  0  0  0  0
 10 11  1  0  0  0  0
  2 12  1  0  0  0  0
 10 12  1  0  0  0  0
 10 13  1  0  0  0  0
  8 14  1  0  0  0  0
  6 15  1  0  0  0  0
  4 16  1  0  0  0  0
  1 17  1  0  0  0  0
  1 18  1  0  0  0  0
  1 19  1  0  0  0  0
 13 20  1  0  0  0  0
 14 21  1  0  0  0  0
 15 22  1  0  0  0  0
 16 23  1  0  0  0  0
 17 24  1  0  0  0  0
M  END
