 xtb: 6.7.1 (edcfbbe)
          04052516073D

 27 27  0     0  0            999 V2000
   -3.3921    0.5286   -0.0081 C   0  0  0  0  0  0  0  0  0  0  0  0
   -1.9084    0.5190    0.3430 C   0  0  0  0  0  0  0  0  0  0  0  0
   -1.7783    0.8508    1.3787 H   0  0  0  0  0  0  0  0  0  0  0  0
   -1.1020    1.4580   -0.5696 C   0  0  0  0  0  0  0  0  0  0  0  0
    0.3817    1.4271   -0.2234 C   0  0  0  0  0  0  0  0  0  0  0  0
    0.9288    0.0069   -0.3730 C   0  0  0  0  0  0  0  0  0  0  0  0
    0.7432   -0.3294   -1.3995 H   0  0  0  0  0  0  0  0  0  0  0  0
    0.1505   -0.9346    0.5696 C   0  0  0  0  0  0  0  0  0  0  0  0
   -1.3155   -0.8679    0.2391 C   0  0  0  0  0  0  0  0  0  0  0  0
   -1.9523   -1.8417   -0.1124 O   0  0  0  0  0  0  0  0  0  0  0  0
    2.4131   -0.0943   -0.1122 C   0  0  0  0  0  0  0  0  0  0  0  0
    3.2082   -0.7214   -0.9657 C   0  0  0  0  0  0  0  0  0  0  0  0
    2.9406    0.5341    1.1412 C   0  0  0  0  0  0  0  0  0  0  0  0
   -3.7990    1.5310    0.0905 H   0  0  0  0  0  0  0  0  0  0  0  0
   -3.5381    0.1868   -1.0305 H   0  0  0  0  0  0  0  0  0  0  0  0
   -3.9392   -0.1430    0.6492 H   0  0  0  0  0  0  0  0  0  0  0  0
   -1.2470    1.1506   -1.6080 H   0  0  0  0  0  0  0  0  0  0  0  0
   -1.4915    2.4714   -0.4636 H   0  0  0  0  0  0  0  0  0  0  0  0
    0.9273    2.0965   -0.8906 H   0  0  0  0  0  0  0  0  0  0  0  0
    0.5208    1.7742    0.8008 H   0  0  0  0  0  0  0  0  0  0  0  0
    0.5038   -1.9612    0.4600 H   0  0  0  0  0  0  0  0  0  0  0  0
    0.2939   -0.6159    1.6025 H   0  0  0  0  0  0  0  0  0  0  0  0
    4.2670   -0.8155   -0.7938 H   0  0  0  0  0  0  0  0  0  0  0  0
    2.8350   -1.1673   -1.8725 H   0  0  0  0  0  0  0  0  0  0  0  0
    3.9758    0.2469    1.3016 H   0  0  0  0  0  0  0  0  0  0  0  0
    2.8939    1.6191    1.0668 H   0  0  0  0  0  0  0  0  0  0  0  0
    2.3568    0.2286    2.0063 H   0  0  0  0  0  0  0  0  0  0  0  0
  1  2  1  0  0  0  0
  2  3  1  0  0  0  0
  2  4  1  0  0  0  0
  4  5  1  0  0  0  0
  5  6  1  0  0  0  0
  6  7  1  0  0  0  0
  6  8  1  0  0  0  0
  2  9  1  0  0  0  0
  8  9  1  0  0  0  0
  9 10  2  0  0  0  0
  6 11  1  0  0  0  0
 11 12  2  0  0  0  0
 11 13  1  0  0  0  0
  1 14  1  0  0  0  0
  1 15  1  0  0  0  0
  1 16  1  0  0  0  0
  4 17  1  0  0  0  0
  4 18  1  0  0  0  0
  5 19  1  0  0  0  0
  5 20  1  0  0  0  0
  8 21  1  0  0  0  0
  8 22  1  0  0  0  0
 12 23  1  0  0  0  0
 12 24  1  0  0  0  0
 13 25  1  0  0  0  0
 13 26  1  0  0  0  0
 13 27  1  0  0  0  0
M  END
