 xtb: 6.7.1 (edcfbbe)
          04062518003D

 24 24  0     0  0            999 V2000
   -2.4218   -1.1073   -0.3194 C   0  0  0  0  0  0  0  0  0  0  0  0
   -1.0697   -0.5990    0.2021 C   0  0  0  0  0  0  0  0  0  0  0  0
   -1.1046   -0.5789    1.3026 H   0  0  0  0  0  0  0  0  0  0  0  0
   -0.7557    0.8167   -0.3075 C   0  0  0  0  0  0  0  0  0  0  0  0
   -0.7549    0.7916   -1.4114 H   0  0  0  0  0  0  0  0  0  0  0  0
    0.6381    1.2332    0.1807 C   0  0  0  0  0  0  0  0  0  0  0  0
    0.6197    1.3299    1.2726 H   0  0  0  0  0  0  0  0  0  0  0  0
    1.6836    0.1765   -0.2034 C   0  0  0  0  0  0  0  0  0  0  0  0
    1.7834    0.1463   -1.3023 H   0  0  0  0  0  0  0  0  0  0  0  0
    1.2154   -1.2155    0.2748 C   0  0  0  0  0  0  0  0  0  0  0  0
    1.2061   -1.2194    1.3765 H   0  0  0  0  0  0  0  0  0  0  0  0
   -0.0718   -1.4966   -0.2380 O   0  0  0  0  0  0  0  0  0  0  0  0
    2.0579   -2.2333   -0.1046 O   0  0  0  0  0  0  0  0  0  0  0  0
    2.9263    0.4451    0.3896 O   0  0  0  0  0  0  0  0  0  0  0  0
    0.9914    2.5102   -0.2963 O   0  0  0  0  0  0  0  0  0  0  0  0
   -1.7465    1.7010    0.1507 O   0  0  0  0  0  0  0  0  0  0  0  0
   -3.5071   -0.5258    0.3488 O   0  0  0  0  0  0  0  0  0  0  0  0
   -2.4786   -2.1827   -0.1396 H   0  0  0  0  0  0  0  0  0  0  0  0
   -2.4817   -0.9291   -1.4013 H   0  0  0  0  0  0  0  0  0  0  0  0
    1.9985   -2.3701   -1.0638 H   0  0  0  0  0  0  0  0  0  0  0  0
    3.1199    1.3922    0.2967 H   0  0  0  0  0  0  0  0  0  0  0  0
    1.0448    2.4995   -1.2645 H   0  0  0  0  0  0  0  0  0  0  0  0
   -1.4064    2.6088    0.1040 H   0  0  0  0  0  0  0  0  0  0  0  0
   -3.4063    0.4401    0.3179 H   0  0  0  0  0  0  0  0  0  0  0  0
  1  2  1  0  0  0  0
  2  3  1  0  0  0  0
  2  4  1  0  0  0  0
  4  5  1  0  0  0  0
  4  6  1  0  0  0  0
  6  7  1  0  0  0  0
  6  8  1  0  0  0  0
  8  9  1  0  0  0  0
  8 10  1  0  0  0  0
 10 11  1  0  0  0  0
  2 12  1  0  0  0  0
 10 12  1  0  0  0  0
 10 13  1  0  0  0  0
  8 14  1  0  0  0  0
  6 15  1  0  0  0  0
  4 16  1  0  0  0  0
  1 17  1  0  0  0  0
  1 18  1  0  0  0  0
  1 19  1  0  0  0  0
 13 20  1  0  0  0  0
 14 21  1  0  0  0  0
 15 22  1  0  0  0  0
 16 23  1  0  0  0  0
 17 24  1  0  0  0  0
M  END
