 xtb: 6.7.1 (edcfbbe)
          04042516233D

 13 12  0     0  0            999 V2000
    1.0850   -1.4960    0.0315 C   0  0  0  0  0  0  0  0  0  0  0  0
    0.4577   -0.1324    0.0259 C   0  0  0  0  0  0  0  0  0  0  0  0
    1.1872    0.9739   -0.0946 C   0  0  0  0  0  0  0  0  0  0  0  0
   -0.9965   -0.1235    0.1866 C   0  0  0  0  0  0  0  0  0  0  0  0
   -1.8142    0.8702   -0.1373 C   0  0  0  0  0  0  0  0  0  0  0  0
    2.1585   -1.4325   -0.1229 H   0  0  0  0  0  0  0  0  0  0  0  0
    0.6510   -2.1115   -0.7552 H   0  0  0  0  0  0  0  0  0  0  0  0
    0.8960   -1.9896    0.9841 H   0  0  0  0  0  0  0  0  0  0  0  0
    0.7483    1.9557   -0.0713 H   0  0  0  0  0  0  0  0  0  0  0  0
    2.2568    0.9334   -0.2096 H   0  0  0  0  0  0  0  0  0  0  0  0
   -1.4137   -1.0390    0.5874 H   0  0  0  0  0  0  0  0  0  0  0  0
   -2.8776    0.7952    0.0107 H   0  0  0  0  0  0  0  0  0  0  0  0
   -1.4571    1.7898   -0.5682 H   0  0  0  0  0  0  0  0  0  0  0  0
  1  2  1  0  0  0  0
  2  3  2  0  0  0  0
  2  4  1  0  0  0  0
  4  5  2  0  0  0  0
  1  6  1  0  0  0  0
  1  7  1  0  0  0  0
  1  8  1  0  0  0  0
  3  9  1  0  0  0  0
  3 10  1  0  0  0  0
  4 11  1  0  0  0  0
  5 12  1  0  0  0  0
  5 13  1  0  0  0  0
M  END
