 xtb: 6.7.1 (edcfbbe)
          04032521523D

 25 27  0     0  0            999 V2000
    1.5870    1.5182    1.3391 C   0  0  0  0  0  0  0  0  0  0  0  0
    0.2484    0.7802    1.4375 C   0  0  0  0  0  0  0  0  0  0  0  0
   -0.2199    1.1369    2.3581 H   0  0  0  0  0  0  0  0  0  0  0  0
    0.2474   -0.7787    1.4385 C   0  0  0  0  0  0  0  0  0  0  0  0
   -0.2199   -1.1339    2.3602 H   0  0  0  0  0  0  0  0  0  0  0  0
    1.5850   -1.5184    1.3388 C   0  0  0  0  0  0  0  0  0  0  0  0
    2.3060   -1.2544    0.1585 O   0  0  0  0  0  0  0  0  0  0  0  0
    3.3987   -0.0008    0.1989 S   0  0  0  0  0  0  0  0  0  0  0  0
    3.9317   -0.0012    1.5474 O   0  0  0  0  0  0  0  0  0  0  0  0
    2.3079    1.2541    0.1587 O   0  0  0  0  0  0  0  0  0  0  0  0
   -0.7125   -1.1149    0.2623 C   0  0  0  0  0  0  0  0  0  0  0  0
   -0.0696   -0.6721   -1.0376 C   0  0  0  0  0  0  0  0  0  0  0  0
   -0.0679    0.6686   -1.0389 C   0  0  0  0  0  0  0  0  0  0  0  0
   -0.7099    1.1158    0.2600 C   0  0  0  0  0  0  0  0  0  0  0  0
   -1.7721    0.0019    0.4111 C   0  0  0  0  0  0  0  0  0  0  0  0
   -2.9781    0.0018   -0.8909 Cl  0  0  0  0  0  0  0  0  0  0  0  0
   -2.6304    0.0043    1.9440 Cl  0  0  0  0  0  0  0  0  0  0  0  0
   -1.3145    2.7612    0.2630 Cl  0  0  0  0  0  0  0  0  0  0  0  0
    0.5063    1.7307   -2.2205 Cl  0  0  0  0  0  0  0  0  0  0  0  0
    0.5015   -1.7381   -2.2170 Cl  0  0  0  0  0  0  0  0  0  0  0  0
   -1.3210   -2.7587    0.2695 Cl  0  0  0  0  0  0  0  0  0  0  0  0
    2.2130    1.2555    2.2006 H   0  0  0  0  0  0  0  0  0  0  0  0
    1.3936    2.5937    1.3560 H   0  0  0  0  0  0  0  0  0  0  0  0
    2.2116   -1.2575    2.2004 H   0  0  0  0  0  0  0  0  0  0  0  0
    1.3901   -2.5937    1.3548 H   0  0  0  0  0  0  0  0  0  0  0  0
  1  2  1  0  0  0  0
  2  3  1  0  0  0  0
  2  4  1  0  0  0  0
  4  5  1  0  0  0  0
  4  6  1  0  0  0  0
  6  7  1  0  0  0  0
  7  8  1  0  0  0  0
  8  9  2  0  0  0  0
  1 10  1  0  0  0  0
  8 10  1  0  0  0  0
  4 11  1  0  0  0  0
 11 12  1  0  0  0  0
 12 13  2  0  0  0  0
  2 14  1  0  0  0  0
 13 14  1  0  0  0  0
 11 15  1  0  0  0  0
 14 15  1  0  0  0  0
 15 16  1  0  0  0  0
 15 17  1  0  0  0  0
 14 18  1  0  0  0  0
 13 19  1  0  0  0  0
 12 20  1  0  0  0  0
 11 21  1  0  0  0  0
  1 22  1  0  0  0  0
  1 23  1  0  0  0  0
  6 24  1  0  0  0  0
  6 25  1  0  0  0  0
M  END
