 xtb: 6.7.1 (edcfbbe)
          04062518003D

 24 24  0     0  0            999 V2000
   -2.3461   -0.9138    0.5816 C   0  0  0  0  0  0  0  0  0  0  0  0
   -0.8973   -0.4105    0.6386 C   0  0  0  0  0  0  0  0  0  0  0  0
   -0.5640   -0.3894    1.6849 H   0  0  0  0  0  0  0  0  0  0  0  0
   -0.7407    0.9996    0.0379 C   0  0  0  0  0  0  0  0  0  0  0  0
   -1.3356    1.0630   -0.8841 H   0  0  0  0  0  0  0  0  0  0  0  0
    0.7358    1.2710   -0.3453 C   0  0  0  0  0  0  0  0  0  0  0  0
    0.9558    2.2938   -0.0156 H   0  0  0  0  0  0  0  0  0  0  0  0
    1.6841    0.2860    0.3567 C   0  0  0  0  0  0  0  0  0  0  0  0
    2.6971    0.4337   -0.0475 H   0  0  0  0  0  0  0  0  0  0  0  0
    1.2812   -1.1545   -0.0040 C   0  0  0  0  0  0  0  0  0  0  0  0
    1.6745   -1.8213    0.7866 H   0  0  0  0  0  0  0  0  0  0  0  0
   -0.1142   -1.3410   -0.0970 O   0  0  0  0  0  0  0  0  0  0  0  0
    1.8343   -1.4530   -1.2415 O   0  0  0  0  0  0  0  0  0  0  0  0
    1.6801    0.3983    1.7549 O   0  0  0  0  0  0  0  0  0  0  0  0
    0.9424    1.2567   -1.7340 O   0  0  0  0  0  0  0  0  0  0  0  0
   -1.1276    1.9952    0.9556 O   0  0  0  0  0  0  0  0  0  0  0  0
   -2.8927   -0.8644   -0.7106 O   0  0  0  0  0  0  0  0  0  0  0  0
   -2.9759   -0.2798    1.2070 H   0  0  0  0  0  0  0  0  0  0  0  0
   -2.3692   -1.9365    0.9759 H   0  0  0  0  0  0  0  0  0  0  0  0
    1.5997   -2.3586   -1.4989 H   0  0  0  0  0  0  0  0  0  0  0  0
    1.9415    1.2947    2.0112 H   0  0  0  0  0  0  0  0  0  0  0  0
    1.1064    0.3447   -2.0271 H   0  0  0  0  0  0  0  0  0  0  0  0
   -2.0909    2.0120    1.0335 H   0  0  0  0  0  0  0  0  0  0  0  0
   -2.3809   -1.4532   -1.2829 H   0  0  0  0  0  0  0  0  0  0  0  0
  1  2  1  0  0  0  0
  2  3  1  0  0  0  0
  2  4  1  0  0  0  0
  4  5  1  0  0  0  0
  4  6  1  0  0  0  0
  6  7  1  0  0  0  0
  6  8  1  0  0  0  0
  8  9  1  0  0  0  0
  8 10  1  0  0  0  0
 10 11  1  0  0  0  0
  2 12  1  0  0  0  0
 10 12  1  0  0  0  0
 10 13  1  0  0  0  0
  8 14  1  0  0  0  0
  6 15  1  0  0  0  0
  4 16  1  0  0  0  0
  1 17  1  0  0  0  0
  1 18  1  0  0  0  0
  1 19  1  0  0  0  0
 13 20  1  0  0  0  0
 14 21  1  0  0  0  0
 15 22  1  0  0  0  0
 16 23  1  0  0  0  0
 17 24  1  0  0  0  0
M  END
