 xtb: 6.7.1 (edcfbbe)
          04062518003D

 24 24  0     0  0            999 V2000
   -2.5250   -0.9773    0.3509 C   0  0  0  0  0  0  0  0  0  0  0  0
   -1.0900   -0.4929    0.6087 C   0  0  0  0  0  0  0  0  0  0  0  0
   -0.9156   -0.4503    1.6945 H   0  0  0  0  0  0  0  0  0  0  0  0
   -0.8255    0.8996    0.0087 C   0  0  0  0  0  0  0  0  0  0  0  0
   -1.0350    0.8643   -1.0691 H   0  0  0  0  0  0  0  0  0  0  0  0
    0.6500    1.2902    0.1982 C   0  0  0  0  0  0  0  0  0  0  0  0
    0.8356    1.4569    1.2701 H   0  0  0  0  0  0  0  0  0  0  0  0
    1.5830    0.1766   -0.2822 C   0  0  0  0  0  0  0  0  0  0  0  0
    1.5372    0.1454   -1.3817 H   0  0  0  0  0  0  0  0  0  0  0  0
    1.1378   -1.1858    0.2935 C   0  0  0  0  0  0  0  0  0  0  0  0
    1.3132   -1.1711    1.3831 H   0  0  0  0  0  0  0  0  0  0  0  0
   -0.2158   -1.4411    0.0195 O   0  0  0  0  0  0  0  0  0  0  0  0
    1.8955   -2.2250   -0.2127 O   0  0  0  0  0  0  0  0  0  0  0  0
    2.8867    0.4707    0.1487 O   0  0  0  0  0  0  0  0  0  0  0  0
    0.9457    2.4526   -0.5336 O   0  0  0  0  0  0  0  0  0  0  0  0
   -1.5910    1.9003    0.6358 O   0  0  0  0  0  0  0  0  0  0  0  0
   -2.8948   -0.8942   -1.0004 O   0  0  0  0  0  0  0  0  0  0  0  0
   -3.2218   -0.3464    0.9044 H   0  0  0  0  0  0  0  0  0  0  0  0
   -2.6071   -2.0057    0.7196 H   0  0  0  0  0  0  0  0  0  0  0  0
    1.5798   -2.4527   -1.1018 H   0  0  0  0  0  0  0  0  0  0  0  0
    3.4689   -0.2694   -0.0846 H   0  0  0  0  0  0  0  0  0  0  0  0
    0.3700    3.1650   -0.2164 H   0  0  0  0  0  0  0  0  0  0  0  0
   -2.5033    1.8588    0.3170 H   0  0  0  0  0  0  0  0  0  0  0  0
   -2.3644   -1.5242   -1.5075 H   0  0  0  0  0  0  0  0  0  0  0  0
  1  2  1  0  0  0  0
  2  3  1  0  0  0  0
  2  4  1  0  0  0  0
  4  5  1  0  0  0  0
  4  6  1  0  0  0  0
  6  7  1  0  0  0  0
  6  8  1  0  0  0  0
  8  9  1  0  0  0  0
  8 10  1  0  0  0  0
 10 11  1  0  0  0  0
  2 12  1  0  0  0  0
 10 12  1  0  0  0  0
 10 13  1  0  0  0  0
  8 14  1  0  0  0  0
  6 15  1  0  0  0  0
  4 16  1  0  0  0  0
  1 17  1  0  0  0  0
  1 18  1  0  0  0  0
  1 19  1  0  0  0  0
 13 20  1  0  0  0  0
 14 21  1  0  0  0  0
 15 22  1  0  0  0  0
 16 23  1  0  0  0  0
 17 24  1  0  0  0  0
M  END
