 xtb: 6.7.1 (edcfbbe)
          04032521483D

 11 10  0     0  0            999 V2000
   -2.8193   -0.4060    0.0002 C   0  0  0  0  0  0  0  0  0  0  0  0
   -1.3920   -0.6128   -0.0009 O   0  0  0  0  0  0  0  0  0  0  0  0
   -0.6042    0.4152   -0.0010 C   0  0  0  0  0  0  0  0  0  0  0  0
   -0.8795    1.5845   -0.0004 O   0  0  0  0  0  0  0  0  0  0  0  0
    0.8760   -0.0777   -0.0004 C   0  0  0  0  0  0  0  0  0  0  0  0
    1.7356    0.9415   -0.0260 F   0  0  0  0  0  0  0  0  0  0  0  0
    1.1507   -0.8064    1.0903 F   0  0  0  0  0  0  0  0  0  0  0  0
    1.1392   -0.8508   -1.0626 F   0  0  0  0  0  0  0  0  0  0  0  0
   -3.0439    0.6593   -0.0158 H   0  0  0  0  0  0  0  0  0  0  0  0
   -3.2076   -0.8745    0.9019 H   0  0  0  0  0  0  0  0  0  0  0  0
   -3.2115   -0.9033   -0.8841 H   0  0  0  0  0  0  0  0  0  0  0  0
  1  2  1  0  0  0  0
  2  3  4  0  0  0  0
  3  4  2  0  0  0  0
  3  5  1  0  0  0  0
  5  6  1  0  0  0  0
  5  7  1  0  0  0  0
  5  8  1  0  0  0  0
  1  9  1  0  0  0  0
  1 10  1  0  0  0  0
  1 11  1  0  0  0  0
M  END
