 xtb: 6.7.1 (edcfbbe)
          04042519103D

 15 14  0     0  0            999 V2000
   -1.3538   -0.8870    0.3906 C   0  0  0  0  0  0  0  0  0  0  0  0
   -0.5900    0.0818   -0.5089 C   0  0  0  0  0  0  0  0  0  0  0  0
   -0.7113    1.5141    0.0111 C   0  0  0  0  0  0  0  0  0  0  0  0
    0.8814   -0.3478   -0.6308 C   0  0  0  0  0  0  0  0  0  0  0  0
    1.5783   -0.3798    0.5956 O   0  0  0  0  0  0  0  0  0  0  0  0
   -2.3818   -0.5587    0.5193 H   0  0  0  0  0  0  0  0  0  0  0  0
   -0.8777   -0.9412    1.3671 H   0  0  0  0  0  0  0  0  0  0  0  0
   -1.3582   -1.8848   -0.0414 H   0  0  0  0  0  0  0  0  0  0  0  0
   -1.0108    0.0397   -1.5191 H   0  0  0  0  0  0  0  0  0  0  0  0
   -1.7477    1.8386   -0.0322 H   0  0  0  0  0  0  0  0  0  0  0  0
   -0.1146    2.1950   -0.5922 H   0  0  0  0  0  0  0  0  0  0  0  0
   -0.3853    1.5763    1.0469 H   0  0  0  0  0  0  0  0  0  0  0  0
    0.9326   -1.3701   -1.0145 H   0  0  0  0  0  0  0  0  0  0  0  0
    1.3991    0.3118   -1.3413 H   0  0  0  0  0  0  0  0  0  0  0  0
    1.6265    0.5195    0.9473 H   0  0  0  0  0  0  0  0  0  0  0  0
  1  2  1  0  0  0  0
  2  3  1  0  0  0  0
  2  4  1  0  0  0  0
  4  5  1  0  0  0  0
  1  6  1  0  0  0  0
  1  7  1  0  0  0  0
  1  8  1  0  0  0  0
  2  9  1  0  0  0  0
  3 10  1  0  0  0  0
  3 11  1  0  0  0  0
  3 12  1  0  0  0  0
  4 13  1  0  0  0  0
  4 14  1  0  0  0  0
  5 15  1  0  0  0  0
M  END
